Spectre (R) Circuit Simulator
Version 16.1.0.479.isr9 32bit -- 7 Sep 2017
Simulating `input.scs' on eeapps03.seas.ucla.edu at 3:31:56 PM, Tue Jan 14, 2020 (process id: 153962).
H = mpsImport( "spectre" "ipi" "v0.0" ?session "spectre0_150473_1" )
H->sclSetResultDir( "../psf" )
H->sclRun( "all" )
sclCkt0x11057e18 = H->sclGetCircuit(  "" )
sclParam0x11057e18 = H->sclGetParameter( sclCkt0x11057e18 "VGS" )
H->sclSetAttribute( sclParam0x11057e18 "value" "0.4" )
H->sclSetResultDir( "../psf" )
H->sclRun( "all" )
sclCkt0x11057e18 = H->sclGetCircuit(  "" )
sclParam0x11057e19 = H->sclGetParameter( sclCkt0x11057e18 "VGS" )
H->sclSetAttribute( sclParam0x11057e19 "value" "0.6" )
H->sclSetResultDir( "../psf" )
H->sclRun( "all" )
sclCkt0x11057e18 = H->sclGetCircuit(  "" )
sclParam0x11057e1a = H->sclGetParameter( sclCkt0x11057e18 "VGS" )
H->sclSetAttribute( sclParam0x11057e1a "value" "0.8" )
H->sclSetResultDir( "../psf" )
H->sclRun( "all" )
sclCkt0x11057e18 = H->sclGetCircuit(  "" )
sclParam0x11057e1b = H->sclGetParameter( sclCkt0x11057e18 "VGS" )
H->sclSetAttribute( sclParam0x11057e1b "value" "1" )
H->sclSetResultDir( "../psf" )
H->sclRun( "all" )
sclCkt0x11057e18 = H->sclGetCircuit(  "" )
H->sclQuit(  )
