Spectre (R) Circuit Simulator
Version 16.1.0.479.isr9 32bit -- 7 Sep 2017
Simulating `input.scs' on eeapps04.seas.ucla.edu at 5:50:16 PM, Thur Jan 23, 2020 (process id: 161093).
H = mpsImport( "spectre" "ipi" "v0.0" ?session "spectre0_160180_1" )
H->sclSetResultDir( "../psf" )
H->sclRun( "all" )
H->sclSetResultDir( "../psf" )
H->sclRun( "all" )
sclCkt0xf351610 = H->sclGetCircuit(  "" )
sclParam0xf351610 = H->sclGetParameter( sclCkt0xf351610 "VSB" )
H->sclSetAttribute( sclParam0xf351610 "value" "0.5" )
H->sclSetResultDir( "../psf" )
H->sclRun( "all" )
sclCkt0xf351610 = H->sclGetCircuit(  "" )
sclParam0xf351611 = H->sclGetParameter( sclCkt0xf351610 "VGS" )
H->sclSetAttribute( sclParam0xf351611 "value" "0.5" )
sclCkt0xf351610 = H->sclGetCircuit(  "" )
sclParam0xf351612 = H->sclGetParameter( sclCkt0xf351610 "VSB" )
H->sclSetAttribute( sclParam0xf351612 "value" "0" )
H->sclSetResultDir( "../psf" )
H->sclRun( "all" )
sclCkt0xf351610 = H->sclGetCircuit(  "" )
sclParam0xf351613 = H->sclGetParameter( sclCkt0xf351610 "VSB" )
H->sclSetAttribute( sclParam0xf351613 "value" "0.5" )
H->sclSetResultDir( "../psf" )
H->sclRun( "all" )
sclCkt0xf351610 = H->sclGetCircuit(  "" )
sclParam0xf351614 = H->sclGetParameter( sclCkt0xf351610 "VGS" )
H->sclSetAttribute( sclParam0xf351614 "value" "0.7" )
sclCkt0xf351610 = H->sclGetCircuit(  "" )
sclParam0xf351615 = H->sclGetParameter( sclCkt0xf351610 "VSB" )
H->sclSetAttribute( sclParam0xf351615 "value" "0" )
H->sclSetResultDir( "../psf" )
H->sclRun( "all" )
sclCkt0xf351610 = H->sclGetCircuit(  "" )
sclParam0xf351616 = H->sclGetParameter( sclCkt0xf351610 "VSB" )
H->sclSetAttribute( sclParam0xf351616 "value" "0.5" )
H->sclSetResultDir( "../psf" )
H->sclRun( "all" )
sclCkt0xf351610 = H->sclGetCircuit(  "" )
sclParam0xf351617 = H->sclGetParameter( sclCkt0xf351610 "VGS" )
H->sclSetAttribute( sclParam0xf351617 "value" "1" )
sclCkt0xf351610 = H->sclGetCircuit(  "" )
sclParam0xf351618 = H->sclGetParameter( sclCkt0xf351610 "VSB" )
H->sclSetAttribute( sclParam0xf351618 "value" "0" )
H->sclSetResultDir( "../psf" )
H->sclRun( "all" )
sclCkt0xf351610 = H->sclGetCircuit(  "" )
sclParam0xf351619 = H->sclGetParameter( sclCkt0xf351610 "VSB" )
H->sclSetAttribute( sclParam0xf351619 "value" "0.5" )
H->sclSetResultDir( "../psf" )
H->sclRun( "all" )
sclCkt0xf351610 = H->sclGetCircuit(  "" )
H->sclQuit(  )
