
Spectre (R) Circuit Simulator
Version 16.1.0.479.isr9 32bit -- 7 Sep 2017
Copyright (C) 1989-2017 Cadence Design Systems, Inc. All rights reserved worldwide. Cadence and Spectre are registered trademarks of Cadence Design Systems, Inc. All others are the property of their respective holders.

Includes RSA BSAFE(R) Cryptographic or Security Protocol Software from RSA Security, Inc.

User: farooq   Host: eeapps04.seas.ucla.edu   HostID: 43A4F464   PID: 161093
Memory  available: 51.9013 GB  physical: 67.4342 GB
Linux   : Red Hat Enterprise Linux Server release 6.10 (Santiago)
CPU Type: Intel(R) Xeon(R) CPU E5-2630 v3 @ 2.40GHz
        Socket: Processors [Frequency] (Hyperthreaded Processor)
        0:       0 [1200.0] ( 16 ),  2 [1200.0] ( 18 ),  4 [1200.0] ( 20 )
                 6 [1200.0] ( 22 ),  8 [1200.0] ( 24 ), 10 [1200.0] ( 26 )
                12 [1200.0] ( 28 ), 14 [1200.0] ( 30 )
        1:       1 [1200.0] ( 17 ),  3 [1200.0] ( 19 ),  5 [1200.0] ( 21 )
                 7 [1200.0] ( 23 ),  9 [2401.0] ( 25 ), 11 [1200.0] ( 27 )
                13 [1200.0] ( 29 ), 15 [1200.0] ( 31 )
        
System load averages (1min, 5min, 15min) : 3.4 %, 3.4 %, 3.2 %
Hyperthreading is enabled


Simulating `input.scs' on eeapps04.seas.ucla.edu at 5:50:16 PM, Thur Jan 23, 2020 (process id: 161093).
Current working directory: /w/home.15/ee/ugrad/farooq/ee115c/cadence-labs/simulation/hw2_NMOS/spectre/schematic/netlist
Command line:
    /w/apps3/Cadence/SPECTRE161/tools/bin/spectre input.scs +escchars  \
        +log ../psf/spectre.out +inter=mpsc  \
        +mpssession=spectre0_160180_1 -format psfxl -raw ../psf  \
        +lqtimeout 900 -maxw 5 -maxn 5
spectre pid = 161093

Loading /w/apps3/Cadence/SPECTRE161/tools.lnx86/cmi/lib/5.0/libinfineon_sh.so ...
Loading /w/apps3/Cadence/SPECTRE161/tools.lnx86/cmi/lib/5.0/libphilips_o_sh.so ...
Loading /w/apps3/Cadence/SPECTRE161/tools.lnx86/cmi/lib/5.0/libphilips_sh.so ...
Loading /w/apps3/Cadence/SPECTRE161/tools.lnx86/cmi/lib/5.0/libsparam_sh.so ...
Loading /w/apps3/Cadence/SPECTRE161/tools.lnx86/cmi/lib/5.0/libstmodels_sh.so ...
Reading file:  /w/home.15/ee/ugrad/farooq/ee115c/cadence-labs/simulation/hw2_NMOS/spectre/schematic/netlist/input.scs
Reading file:  /w/apps3/Cadence/SPECTRE161/tools.lnx86/spectre/etc/configs/mapsubckt.cfg
Reading file:  /w/apps3/Cadence/SPECTRE161/tools.lnx86/spectre/etc/configs/spectre.cfg
Reading link:  /usr/public.2
Reading file:  /w/apps2/public.2/ee115c/cadence-labs/gpdk090_v3.4/models/spectre/gpdk090.scs
Reading file:  /w/apps2/public.2/ee115c/cadence-labs/gpdk090_v3.4/models/spectre/gpdk090_mos.scs
Reading file:  /w/apps2/public.2/ee115c/cadence-labs/gpdk090_v3.4/models/spectre/gpdk090_mos_iso.scs
Reading file:  /w/apps2/public.2/ee115c/cadence-labs/gpdk090_v3.4/models/spectre/gpdk090_moscap.scs
Reading file:  /w/apps2/public.2/ee115c/cadence-labs/gpdk090_v3.4/models/spectre/gpdk090_resistor.scs
Reading file:  /w/apps2/public.2/ee115c/cadence-labs/gpdk090_v3.4/models/spectre/resd_va.va
Reading link:  /w/apps3/Cadence/SPECTRE161/tools.lnx86/spectre/etc/ahdl/constants.h
Reading file:  /w/apps3/Cadence/SPECTRE161/tools.lnx86/spectre/etc/ahdl/constants.vams
Reading link:  /w/apps3/Cadence/SPECTRE161/tools.lnx86/spectre/etc/ahdl/discipline.h
Reading file:  /w/apps3/Cadence/SPECTRE161/tools.lnx86/spectre/etc/ahdl/disciplines.vams
Reading file:  /w/apps2/public.2/ee115c/cadence-labs/gpdk090_v3.4/models/spectre/gpdk090_capacitor.scs
Reading file:  /w/apps2/public.2/ee115c/cadence-labs/gpdk090_v3.4/models/spectre/gpdk090_diode.scs
Reading file:  /w/apps2/public.2/ee115c/cadence-labs/gpdk090_v3.4/models/spectre/gpdk090_bipolar.scs
Time for NDB Parsing: CPU = 242.963 ms, elapsed = 394.91 ms.
Time accumulated: CPU = 269.958 ms, elapsed = 394.919 ms.
Peak resident memory used = 37.4 Mbytes.


The CPU load for active processors is :
        Spectre  0 (7.9 %)       9 (100.0 %)    16 (7.7 %)      18 (7.7 %)
                19 (2.6 %)      20 (35.9 %)     30 (28.2 %)     
        Other   

Warning from spectre during hierarchy flattening.
    WARNING (SFE-30): "input.scs" 14: NM0: `simM' is not a valid parameter for an instance of `gpdk090_nmos1v'.  Ignored.

Time for Elaboration: CPU = 26.996 ms, elapsed = 27.3011 ms.
Time accumulated: CPU = 296.954 ms, elapsed = 422.475 ms.
Peak resident memory used = 41.3 Mbytes.


Time for EDB Visiting: CPU = 0 s, elapsed = 555.992 us.
Time accumulated: CPU = 296.954 ms, elapsed = 423.154 ms.
Peak resident memory used = 41.8 Mbytes.


Warning from spectre during initial setup.
    WARNING (CMI-2419): gpdk090_nmos1v: `imax' = 1 A is larger than `imelt' = 10 mA.  `imelt' is increased to `imax'.
Notice from spectre during topology check.
    No connections to node `0'.
    No DC path from node `net5' to ground, Gmin installed to provide path.


Global user options:
             reltol = 0.001
            vabstol = 1e-06
            iabstol = 1e-12
               temp = 27
               gmin = 1e-12
             rforce = 1
           maxnotes = 5
           maxwarns = 5
             digits = 5
               cols = 80
             pivrel = 0.001
           sensfile = ../psf/sens.output
     checklimitdest = psf
               save = allpub
               tnom = 27
             scalem = 1
              scale = 1

Scoped user options:

Circuit inventory:
              nodes 5
            bsim3v3 1     
            vsource 4     

Analysis and control statement inventory:
                 dc 1     
               info 6     

Output statements:
             .probe 0     
           .measure 0     
               save 1     

Time for parsing: CPU = 2.999 ms, elapsed = 3.04103 ms.
Time accumulated: CPU = 299.953 ms, elapsed = 426.308 ms.
Peak resident memory used = 42.9 Mbytes.

~~~~~~~~~~~~~~~~~~~~~~
Pre-Simulation Summary
~~~~~~~~~~~~~~~~~~~~~~

Warning from spectre.
    WARNING (SPECTRE-470): No connections to node `gnd'.

~~~~~~~~~~~~~~~~~~~~~~
Entering remote command mode using MPSC service (spectre, ipi, v0.0, spectre0_160180_1, ).

Warning from spectre.
    WARNING (SPECTRE-16707): Only tran supports psfxl format, result of other analyses will be in psfbin format.


********************************
DC Analysis `dc': VDS = (0 -> 1)
********************************

Opening the PSF file ../psf/dc.dc ...
Important parameter values:
    reltol = 1e-03
    abstol(V) = 1 uV
    abstol(I) = 1 pA
    temp = 27 C
    tnom = 27 C
    tempeffects = all
    gmindc = 1 pS
    dc: VDS = 50e-03         (5 %), step = 50e-03          (5 %)
    dc: VDS = 100e-03       (10 %), step = 50e-03          (5 %)
    dc: VDS = 150e-03       (15 %), step = 50e-03          (5 %)
    dc: VDS = 200e-03       (20 %), step = 50e-03          (5 %)
    dc: VDS = 250e-03       (25 %), step = 50e-03          (5 %)
    dc: VDS = 300e-03       (30 %), step = 50e-03          (5 %)
    dc: VDS = 350e-03       (35 %), step = 50e-03          (5 %)
    dc: VDS = 400e-03       (40 %), step = 50e-03          (5 %)
    dc: VDS = 450e-03       (45 %), step = 50e-03          (5 %)
    dc: VDS = 500e-03       (50 %), step = 50e-03          (5 %)
    dc: VDS = 550e-03       (55 %), step = 50e-03          (5 %)
    dc: VDS = 600e-03       (60 %), step = 50e-03          (5 %)
    dc: VDS = 650e-03       (65 %), step = 50e-03          (5 %)
    dc: VDS = 700e-03       (70 %), step = 50e-03          (5 %)
    dc: VDS = 750e-03       (75 %), step = 50e-03          (5 %)
    dc: VDS = 800e-03       (80 %), step = 50e-03          (5 %)
    dc: VDS = 850e-03       (85 %), step = 50e-03          (5 %)
    dc: VDS = 900e-03       (90 %), step = 50e-03          (5 %)
    dc: VDS = 950e-03       (95 %), step = 50e-03          (5 %)
    dc: VDS = 1            (100 %), step = 50e-03          (5 %)

Maximum value achieved for any signal of each quantity: 
V: V(net06) = 1 V
I: I(V1:p) = 27.52 uA
DC simulation time: CPU = 311.952 ms, elapsed = 533.785 ms.
Total time required for dc analysis `dc': CPU = 9.999 ms, elapsed = 12.193 ms.
Time accumulated: CPU = 311.952 ms, elapsed = 534.653 ms.
Peak resident memory used = 44.3 Mbytes.

modelParameter: writing model parameter values to rawfile.

Opening the PSF file ../psf/modelParameter.info ...
element: writing instance parameter values to rawfile.

Opening the PSF file ../psf/element.info ...
outputParameter: writing output parameter values to rawfile.

Opening the PSF file ../psf/outputParameter.info ...
designParamVals: writing netlist parameters to rawfile.

Opening the PSFASCII file ../psf/designParamVals.info ...
primitives: writing primitives to rawfile.

Opening the PSFASCII file ../psf/primitives.info.primitives ...
subckts: writing subcircuits to rawfile.

Opening the PSFASCII file ../psf/subckts.info.subckts ...

Warning from spectre.
    WARNING (SPECTRE-16707): Only tran supports psfxl format, result of other analyses will be in psfbin format.


********************************
DC Analysis `dc': VDS = (0 -> 1)
********************************

Opening the PSF file ../psf/dc.dc ...
Important parameter values:
    reltol = 1e-03
    abstol(V) = 1 uV
    abstol(I) = 1 pA
    temp = 27 C
    tnom = 27 C
    tempeffects = all
    gmindc = 1 pS
    dc: VDS = 50e-03         (5 %), step = 50e-03          (5 %)
    dc: VDS = 100e-03       (10 %), step = 50e-03          (5 %)
    dc: VDS = 150e-03       (15 %), step = 50e-03          (5 %)
    dc: VDS = 200e-03       (20 %), step = 50e-03          (5 %)
    dc: VDS = 250e-03       (25 %), step = 50e-03          (5 %)
    dc: VDS = 300e-03       (30 %), step = 50e-03          (5 %)
    dc: VDS = 350e-03       (35 %), step = 50e-03          (5 %)
    dc: VDS = 400e-03       (40 %), step = 50e-03          (5 %)
    dc: VDS = 450e-03       (45 %), step = 50e-03          (5 %)
    dc: VDS = 500e-03       (50 %), step = 50e-03          (5 %)
    dc: VDS = 550e-03       (55 %), step = 50e-03          (5 %)
    dc: VDS = 600e-03       (60 %), step = 50e-03          (5 %)
    dc: VDS = 650e-03       (65 %), step = 50e-03          (5 %)
    dc: VDS = 700e-03       (70 %), step = 50e-03          (5 %)
    dc: VDS = 750e-03       (75 %), step = 50e-03          (5 %)
    dc: VDS = 800e-03       (80 %), step = 50e-03          (5 %)
    dc: VDS = 850e-03       (85 %), step = 50e-03          (5 %)
    dc: VDS = 900e-03       (90 %), step = 50e-03          (5 %)
    dc: VDS = 950e-03       (95 %), step = 50e-03          (5 %)
    dc: VDS = 1            (100 %), step = 50e-03          (5 %)

Maximum value achieved for any signal of each quantity: 
V: V(net06) = 1 V
I: I(V1:p) = 27.52 uA
DC simulation time: CPU = 359.945 ms, elapsed = 81.2013 s.
Total time required for dc analysis `dc': CPU = 8 ms, elapsed = 11.3139 ms.
Time accumulated: CPU = 360.944 ms, elapsed = 81.2022 s (1m  21.2s).
Peak resident memory used = 44.9 Mbytes.

modelParameter: writing model parameter values to rawfile.

Opening the PSF file ../psf/modelParameter.info ...
element: writing instance parameter values to rawfile.

Opening the PSF file ../psf/element.info ...
outputParameter: writing output parameter values to rawfile.

Opening the PSF file ../psf/outputParameter.info ...
designParamVals: writing netlist parameters to rawfile.

Opening the PSFASCII file ../psf/designParamVals.info ...
primitives: writing primitives to rawfile.

Opening the PSFASCII file ../psf/primitives.info.primitives ...
subckts: writing subcircuits to rawfile.

Opening the PSFASCII file ../psf/subckts.info.subckts ...

Warning from spectre.
    WARNING (CMI-2419): gpdk090_nmos1v: `imax' = 1 A is larger than `imelt' = 10 mA.  `imelt' is increased to `imax'.
    WARNING (SPECTRE-16707): Only tran supports psfxl format, result of other analyses will be in psfbin format.


********************************
DC Analysis `dc': VDS = (0 -> 1)
********************************

Opening the PSF file ../psf/dc.dc ...
Important parameter values:
    reltol = 1e-03
    abstol(V) = 1 uV
    abstol(I) = 1 pA
    temp = 27 C
    tnom = 27 C
    tempeffects = all
    gmindc = 1 pS
    dc: VDS = 50e-03         (5 %), step = 50e-03          (5 %)
    dc: VDS = 100e-03       (10 %), step = 50e-03          (5 %)
    dc: VDS = 150e-03       (15 %), step = 50e-03          (5 %)
    dc: VDS = 200e-03       (20 %), step = 50e-03          (5 %)
    dc: VDS = 250e-03       (25 %), step = 50e-03          (5 %)
    dc: VDS = 300e-03       (30 %), step = 50e-03          (5 %)
    dc: VDS = 350e-03       (35 %), step = 50e-03          (5 %)
    dc: VDS = 400e-03       (40 %), step = 50e-03          (5 %)
    dc: VDS = 450e-03       (45 %), step = 50e-03          (5 %)
    dc: VDS = 500e-03       (50 %), step = 50e-03          (5 %)
    dc: VDS = 550e-03       (55 %), step = 50e-03          (5 %)
    dc: VDS = 600e-03       (60 %), step = 50e-03          (5 %)
    dc: VDS = 650e-03       (65 %), step = 50e-03          (5 %)
    dc: VDS = 700e-03       (70 %), step = 50e-03          (5 %)
    dc: VDS = 750e-03       (75 %), step = 50e-03          (5 %)
    dc: VDS = 800e-03       (80 %), step = 50e-03          (5 %)
    dc: VDS = 850e-03       (85 %), step = 50e-03          (5 %)
    dc: VDS = 900e-03       (90 %), step = 50e-03          (5 %)
    dc: VDS = 950e-03       (95 %), step = 50e-03          (5 %)
    dc: VDS = 1            (100 %), step = 50e-03          (5 %)

Maximum value achieved for any signal of each quantity: 
V: V(net1) = 1 V
I: I(V2:p) = 28.76 uA
DC simulation time: CPU = 406.937 ms, elapsed = 81.814 s.
Total time required for dc analysis `dc': CPU = 8.999 ms, elapsed = 11.565 ms.
Time accumulated: CPU = 407.937 ms, elapsed = 81.8149 s (1m  21.8s).
Peak resident memory used = 45.1 Mbytes.

modelParameter: writing model parameter values to rawfile.

Opening the PSF file ../psf/modelParameter.info ...
element: writing instance parameter values to rawfile.

Opening the PSF file ../psf/element.info ...
outputParameter: writing output parameter values to rawfile.

Opening the PSF file ../psf/outputParameter.info ...
designParamVals: writing netlist parameters to rawfile.

Opening the PSFASCII file ../psf/designParamVals.info ...
primitives: writing primitives to rawfile.

Opening the PSFASCII file ../psf/primitives.info.primitives ...
subckts: writing subcircuits to rawfile.

Opening the PSFASCII file ../psf/subckts.info.subckts ...

Warning from spectre.
    WARNING (CMI-2419): gpdk090_nmos1v: `imax' = 1 A is larger than `imelt' = 10 mA.  `imelt' is increased to `imax'.
    WARNING (SPECTRE-16707): Only tran supports psfxl format, result of other analyses will be in psfbin format.


********************************
DC Analysis `dc': VDS = (0 -> 1)
********************************

Opening the PSF file ../psf/dc.dc ...
Important parameter values:
    reltol = 1e-03
    abstol(V) = 1 uV
    abstol(I) = 1 pA
    temp = 27 C
    tnom = 27 C
    tempeffects = all
    gmindc = 1 pS
    dc: VDS = 50e-03         (5 %), step = 50e-03          (5 %)
    dc: VDS = 100e-03       (10 %), step = 50e-03          (5 %)
    dc: VDS = 150e-03       (15 %), step = 50e-03          (5 %)
    dc: VDS = 200e-03       (20 %), step = 50e-03          (5 %)
    dc: VDS = 250e-03       (25 %), step = 50e-03          (5 %)
    dc: VDS = 300e-03       (30 %), step = 50e-03          (5 %)
    dc: VDS = 350e-03       (35 %), step = 50e-03          (5 %)
    dc: VDS = 400e-03       (40 %), step = 50e-03          (5 %)
    dc: VDS = 450e-03       (45 %), step = 50e-03          (5 %)
    dc: VDS = 500e-03       (50 %), step = 50e-03          (5 %)
    dc: VDS = 550e-03       (55 %), step = 50e-03          (5 %)
    dc: VDS = 600e-03       (60 %), step = 50e-03          (5 %)
    dc: VDS = 650e-03       (65 %), step = 50e-03          (5 %)
    dc: VDS = 700e-03       (70 %), step = 50e-03          (5 %)
    dc: VDS = 750e-03       (75 %), step = 50e-03          (5 %)
    dc: VDS = 800e-03       (80 %), step = 50e-03          (5 %)
    dc: VDS = 850e-03       (85 %), step = 50e-03          (5 %)
    dc: VDS = 900e-03       (90 %), step = 50e-03          (5 %)
    dc: VDS = 950e-03       (95 %), step = 50e-03          (5 %)
    dc: VDS = 1            (100 %), step = 50e-03          (5 %)

Maximum value achieved for any signal of each quantity: 
V: V(net06) = 1 V
I: I(V2:p) = 47.49 uA
DC simulation time: CPU = 451.93 ms, elapsed = 82.4428 s.
Total time required for dc analysis `dc': CPU = 8.998 ms, elapsed = 10.6192 ms.
Time accumulated: CPU = 451.93 ms, elapsed = 82.4437 s (1m  22.4s).
Peak resident memory used = 45.3 Mbytes.

modelParameter: writing model parameter values to rawfile.

Opening the PSF file ../psf/modelParameter.info ...
element: writing instance parameter values to rawfile.

Opening the PSF file ../psf/element.info ...
outputParameter: writing output parameter values to rawfile.

Opening the PSF file ../psf/outputParameter.info ...
designParamVals: writing netlist parameters to rawfile.

Opening the PSFASCII file ../psf/designParamVals.info ...
primitives: writing primitives to rawfile.

Opening the PSFASCII file ../psf/primitives.info.primitives ...
subckts: writing subcircuits to rawfile.

Opening the PSFASCII file ../psf/subckts.info.subckts ...

Warning from spectre.
    WARNING (CMI-2419): gpdk090_nmos1v: `imax' = 1 A is larger than `imelt' = 10 mA.  `imelt' is increased to `imax'.
    WARNING (SPECTRE-16707): Only tran supports psfxl format, result of other analyses will be in psfbin format.


********************************
DC Analysis `dc': VDS = (0 -> 1)
********************************

Opening the PSF file ../psf/dc.dc ...
Important parameter values:
    reltol = 1e-03
    abstol(V) = 1 uV
    abstol(I) = 1 pA
    temp = 27 C
    tnom = 27 C
    tempeffects = all
    gmindc = 1 pS
    dc: VDS = 50e-03         (5 %), step = 50e-03          (5 %)
    dc: VDS = 100e-03       (10 %), step = 50e-03          (5 %)
    dc: VDS = 150e-03       (15 %), step = 50e-03          (5 %)
    dc: VDS = 200e-03       (20 %), step = 50e-03          (5 %)
    dc: VDS = 250e-03       (25 %), step = 50e-03          (5 %)
    dc: VDS = 300e-03       (30 %), step = 50e-03          (5 %)
    dc: VDS = 350e-03       (35 %), step = 50e-03          (5 %)
    dc: VDS = 400e-03       (40 %), step = 50e-03          (5 %)
    dc: VDS = 450e-03       (45 %), step = 50e-03          (5 %)
    dc: VDS = 500e-03       (50 %), step = 50e-03          (5 %)
    dc: VDS = 550e-03       (55 %), step = 50e-03          (5 %)
    dc: VDS = 600e-03       (60 %), step = 50e-03          (5 %)
    dc: VDS = 650e-03       (65 %), step = 50e-03          (5 %)
    dc: VDS = 700e-03       (70 %), step = 50e-03          (5 %)
    dc: VDS = 750e-03       (75 %), step = 50e-03          (5 %)
    dc: VDS = 800e-03       (80 %), step = 50e-03          (5 %)
    dc: VDS = 850e-03       (85 %), step = 50e-03          (5 %)
    dc: VDS = 900e-03       (90 %), step = 50e-03          (5 %)
    dc: VDS = 950e-03       (95 %), step = 50e-03          (5 %)
    dc: VDS = 1            (100 %), step = 50e-03          (5 %)

Maximum value achieved for any signal of each quantity: 
V: V(net1) = 1 V
I: I(V2:p) = 48.2 uA
DC simulation time: CPU = 510.921 ms, elapsed = 83.0287 s.
Total time required for dc analysis `dc': CPU = 9.999 ms, elapsed = 23.8848 ms.
Time accumulated: CPU = 511.921 ms, elapsed = 83.0297 s (1m  23.0s).
Peak resident memory used = 45.5 Mbytes.

modelParameter: writing model parameter values to rawfile.

Opening the PSF file ../psf/modelParameter.info ...
element: writing instance parameter values to rawfile.

Opening the PSF file ../psf/element.info ...
outputParameter: writing output parameter values to rawfile.

Opening the PSF file ../psf/outputParameter.info ...
designParamVals: writing netlist parameters to rawfile.

Opening the PSFASCII file ../psf/designParamVals.info ...
primitives: writing primitives to rawfile.

Opening the PSFASCII file ../psf/primitives.info.primitives ...
subckts: writing subcircuits to rawfile.

Opening the PSFASCII file ../psf/subckts.info.subckts ...

Warning from spectre.
    WARNING (CMI-2419): gpdk090_nmos1v: `imax' = 1 A is larger than `imelt' = 10 mA.  `imelt' is increased to `imax'.
    WARNING (SPECTRE-16707): Only tran supports psfxl format, result of other analyses will be in psfbin format.


********************************
DC Analysis `dc': VDS = (0 -> 1)
********************************

Opening the PSF file ../psf/dc.dc ...
Important parameter values:
    reltol = 1e-03
    abstol(V) = 1 uV
    abstol(I) = 1 pA
    temp = 27 C
    tnom = 27 C
    tempeffects = all
    gmindc = 1 pS
    dc: VDS = 50e-03         (5 %), step = 50e-03          (5 %)
    dc: VDS = 100e-03       (10 %), step = 50e-03          (5 %)
    dc: VDS = 150e-03       (15 %), step = 50e-03          (5 %)
    dc: VDS = 200e-03       (20 %), step = 50e-03          (5 %)
    dc: VDS = 250e-03       (25 %), step = 50e-03          (5 %)
    dc: VDS = 300e-03       (30 %), step = 50e-03          (5 %)
    dc: VDS = 350e-03       (35 %), step = 50e-03          (5 %)
    dc: VDS = 400e-03       (40 %), step = 50e-03          (5 %)
    dc: VDS = 450e-03       (45 %), step = 50e-03          (5 %)
    dc: VDS = 500e-03       (50 %), step = 50e-03          (5 %)
    dc: VDS = 550e-03       (55 %), step = 50e-03          (5 %)
    dc: VDS = 600e-03       (60 %), step = 50e-03          (5 %)
    dc: VDS = 650e-03       (65 %), step = 50e-03          (5 %)
    dc: VDS = 700e-03       (70 %), step = 50e-03          (5 %)
    dc: VDS = 750e-03       (75 %), step = 50e-03          (5 %)
    dc: VDS = 800e-03       (80 %), step = 50e-03          (5 %)
    dc: VDS = 850e-03       (85 %), step = 50e-03          (5 %)
    dc: VDS = 900e-03       (90 %), step = 50e-03          (5 %)
    dc: VDS = 950e-03       (95 %), step = 50e-03          (5 %)
    dc: VDS = 1            (100 %), step = 50e-03          (5 %)

Maximum value achieved for any signal of each quantity: 
V: V(net06) = 1 V
I: I(V2:p) = 92 uA
DC simulation time: CPU = 561.914 ms, elapsed = 83.6394 s.
Total time required for dc analysis `dc': CPU = 8 ms, elapsed = 10.4032 ms.
Time accumulated: CPU = 562.914 ms, elapsed = 83.6403 s (1m  23.6s).
Peak resident memory used = 45.7 Mbytes.

modelParameter: writing model parameter values to rawfile.

Opening the PSF file ../psf/modelParameter.info ...
element: writing instance parameter values to rawfile.

Opening the PSF file ../psf/element.info ...
outputParameter: writing output parameter values to rawfile.

Opening the PSF file ../psf/outputParameter.info ...
designParamVals: writing netlist parameters to rawfile.

Opening the PSFASCII file ../psf/designParamVals.info ...
primitives: writing primitives to rawfile.

Opening the PSFASCII file ../psf/primitives.info.primitives ...
subckts: writing subcircuits to rawfile.

Opening the PSFASCII file ../psf/subckts.info.subckts ...

Warning from spectre.
    WARNING (CMI-2419): gpdk090_nmos1v: `imax' = 1 A is larger than `imelt' = 10 mA.  `imelt' is increased to `imax'.
    WARNING (SPECTRE-16707): Only tran supports psfxl format, result of other analyses will be in psfbin format.


********************************
DC Analysis `dc': VDS = (0 -> 1)
********************************

Opening the PSF file ../psf/dc.dc ...
Important parameter values:
    reltol = 1e-03
    abstol(V) = 1 uV
    abstol(I) = 1 pA
    temp = 27 C
    tnom = 27 C
    tempeffects = all
    gmindc = 1 pS
    dc: VDS = 50e-03         (5 %), step = 50e-03          (5 %)
    dc: VDS = 100e-03       (10 %), step = 50e-03          (5 %)
    dc: VDS = 150e-03       (15 %), step = 50e-03          (5 %)
    dc: VDS = 200e-03       (20 %), step = 50e-03          (5 %)
    dc: VDS = 250e-03       (25 %), step = 50e-03          (5 %)
    dc: VDS = 300e-03       (30 %), step = 50e-03          (5 %)
    dc: VDS = 350e-03       (35 %), step = 50e-03          (5 %)
    dc: VDS = 400e-03       (40 %), step = 50e-03          (5 %)
    dc: VDS = 450e-03       (45 %), step = 50e-03          (5 %)
    dc: VDS = 500e-03       (50 %), step = 50e-03          (5 %)
    dc: VDS = 550e-03       (55 %), step = 50e-03          (5 %)
    dc: VDS = 600e-03       (60 %), step = 50e-03          (5 %)
    dc: VDS = 650e-03       (65 %), step = 50e-03          (5 %)
    dc: VDS = 700e-03       (70 %), step = 50e-03          (5 %)
    dc: VDS = 750e-03       (75 %), step = 50e-03          (5 %)
    dc: VDS = 800e-03       (80 %), step = 50e-03          (5 %)
    dc: VDS = 850e-03       (85 %), step = 50e-03          (5 %)
    dc: VDS = 900e-03       (90 %), step = 50e-03          (5 %)
    dc: VDS = 950e-03       (95 %), step = 50e-03          (5 %)
    dc: VDS = 1            (100 %), step = 50e-03          (5 %)

Maximum value achieved for any signal of each quantity: 
V: V(net1) = 1 V
I: I(V2:p) = 91.5 uA
DC simulation time: CPU = 625.903 ms, elapsed = 84.2566 s.
Total time required for dc analysis `dc': CPU = 9.997 ms, elapsed = 11.4231 ms.
Time accumulated: CPU = 625.903 ms, elapsed = 84.2575 s (1m  24.3s).
Peak resident memory used = 45.9 Mbytes.

modelParameter: writing model parameter values to rawfile.

Opening the PSF file ../psf/modelParameter.info ...
element: writing instance parameter values to rawfile.

Opening the PSF file ../psf/element.info ...
outputParameter: writing output parameter values to rawfile.

Opening the PSF file ../psf/outputParameter.info ...
designParamVals: writing netlist parameters to rawfile.

Opening the PSFASCII file ../psf/designParamVals.info ...
primitives: writing primitives to rawfile.

Opening the PSFASCII file ../psf/primitives.info.primitives ...
subckts: writing subcircuits to rawfile.

Opening the PSFASCII file ../psf/subckts.info.subckts ...

Warning from spectre.
    WARNING (CMI-2419): gpdk090_nmos1v: `imax' = 1 A is larger than `imelt' = 10 mA.  `imelt' is increased to `imax'.
    WARNING (SPECTRE-16707): Only tran supports psfxl format, result of other analyses will be in psfbin format.


********************************
DC Analysis `dc': VDS = (0 -> 1)
********************************

Opening the PSF file ../psf/dc.dc ...
Important parameter values:
    reltol = 1e-03
    abstol(V) = 1 uV
    abstol(I) = 1 pA
    temp = 27 C
    tnom = 27 C
    tempeffects = all
    gmindc = 1 pS
    dc: VDS = 50e-03         (5 %), step = 50e-03          (5 %)
    dc: VDS = 100e-03       (10 %), step = 50e-03          (5 %)
    dc: VDS = 150e-03       (15 %), step = 50e-03          (5 %)
    dc: VDS = 200e-03       (20 %), step = 50e-03          (5 %)
    dc: VDS = 250e-03       (25 %), step = 50e-03          (5 %)
    dc: VDS = 300e-03       (30 %), step = 50e-03          (5 %)
    dc: VDS = 350e-03       (35 %), step = 50e-03          (5 %)
    dc: VDS = 400e-03       (40 %), step = 50e-03          (5 %)
    dc: VDS = 450e-03       (45 %), step = 50e-03          (5 %)
    dc: VDS = 500e-03       (50 %), step = 50e-03          (5 %)
    dc: VDS = 550e-03       (55 %), step = 50e-03          (5 %)
    dc: VDS = 600e-03       (60 %), step = 50e-03          (5 %)
    dc: VDS = 650e-03       (65 %), step = 50e-03          (5 %)
    dc: VDS = 700e-03       (70 %), step = 50e-03          (5 %)
    dc: VDS = 750e-03       (75 %), step = 50e-03          (5 %)
    dc: VDS = 800e-03       (80 %), step = 50e-03          (5 %)
    dc: VDS = 850e-03       (85 %), step = 50e-03          (5 %)
    dc: VDS = 900e-03       (90 %), step = 50e-03          (5 %)
    dc: VDS = 950e-03       (95 %), step = 50e-03          (5 %)
    dc: VDS = 1            (100 %), step = 50e-03          (5 %)

Maximum value achieved for any signal of each quantity: 
V: V(net06) = 1 V
I: I(V1:p) = 162.6 uA
DC simulation time: CPU = 676.896 ms, elapsed = 84.8078 s.
Total time required for dc analysis `dc': CPU = 7.999 ms, elapsed = 10.2952 ms.
Time accumulated: CPU = 677.896 ms, elapsed = 84.8087 s (1m  24.8s).
Peak resident memory used = 46.1 Mbytes.

modelParameter: writing model parameter values to rawfile.

Opening the PSF file ../psf/modelParameter.info ...
element: writing instance parameter values to rawfile.

Opening the PSF file ../psf/element.info ...
outputParameter: writing output parameter values to rawfile.

Opening the PSF file ../psf/outputParameter.info ...
designParamVals: writing netlist parameters to rawfile.

Opening the PSFASCII file ../psf/designParamVals.info ...
primitives: writing primitives to rawfile.

Opening the PSFASCII file ../psf/primitives.info.primitives ...
subckts: writing subcircuits to rawfile.

Opening the PSFASCII file ../psf/subckts.info.subckts ...

Warning from spectre.
    WARNING (CMI-2419): gpdk090_nmos1v: `imax' = 1 A is larger than `imelt' = 10 mA.  `imelt' is increased to `imax'.
    WARNING (SPECTRE-16707): Only tran supports psfxl format, result of other analyses will be in psfbin format.


********************************
DC Analysis `dc': VDS = (0 -> 1)
********************************

Opening the PSF file ../psf/dc.dc ...
Important parameter values:
    reltol = 1e-03
    abstol(V) = 1 uV
    abstol(I) = 1 pA
    temp = 27 C
    tnom = 27 C
    tempeffects = all
    gmindc = 1 pS
    dc: VDS = 50e-03         (5 %), step = 50e-03          (5 %)
    dc: VDS = 100e-03       (10 %), step = 50e-03          (5 %)
    dc: VDS = 150e-03       (15 %), step = 50e-03          (5 %)
    dc: VDS = 200e-03       (20 %), step = 50e-03          (5 %)
    dc: VDS = 250e-03       (25 %), step = 50e-03          (5 %)
    dc: VDS = 300e-03       (30 %), step = 50e-03          (5 %)
    dc: VDS = 350e-03       (35 %), step = 50e-03          (5 %)
    dc: VDS = 400e-03       (40 %), step = 50e-03          (5 %)
    dc: VDS = 450e-03       (45 %), step = 50e-03          (5 %)
    dc: VDS = 500e-03       (50 %), step = 50e-03          (5 %)
    dc: VDS = 550e-03       (55 %), step = 50e-03          (5 %)
    dc: VDS = 600e-03       (60 %), step = 50e-03          (5 %)
    dc: VDS = 650e-03       (65 %), step = 50e-03          (5 %)
    dc: VDS = 700e-03       (70 %), step = 50e-03          (5 %)
    dc: VDS = 750e-03       (75 %), step = 50e-03          (5 %)
    dc: VDS = 800e-03       (80 %), step = 50e-03          (5 %)
    dc: VDS = 850e-03       (85 %), step = 50e-03          (5 %)
    dc: VDS = 900e-03       (90 %), step = 50e-03          (5 %)
    dc: VDS = 950e-03       (95 %), step = 50e-03          (5 %)
    dc: VDS = 1            (100 %), step = 50e-03          (5 %)

Maximum value achieved for any signal of each quantity: 
V: V(net1) = 1 V
I: I(V2:p) = 160.4 uA
DC simulation time: CPU = 722.889 ms, elapsed = 85.4214 s.
Total time required for dc analysis `dc': CPU = 8.999 ms, elapsed = 9.95493 ms.
Time accumulated: CPU = 723.889 ms, elapsed = 85.4221 s (1m  25.4s).
Peak resident memory used = 46.2 Mbytes.

modelParameter: writing model parameter values to rawfile.

Opening the PSF file ../psf/modelParameter.info ...
element: writing instance parameter values to rawfile.

Opening the PSF file ../psf/element.info ...
outputParameter: writing output parameter values to rawfile.

Opening the PSF file ../psf/outputParameter.info ...
designParamVals: writing netlist parameters to rawfile.

Opening the PSFASCII file ../psf/designParamVals.info ...
primitives: writing primitives to rawfile.

Opening the PSFASCII file ../psf/primitives.info.primitives ...
subckts: writing subcircuits to rawfile.

Opening the PSFASCII file ../psf/subckts.info.subckts ...

Aggregate audit (5:51:45 PM, Thur Jan 23, 2020):
Time used: CPU = 773 ms, elapsed = 89.4 s (1m  29.4s), util. = 864e-03%.
Time spent in licensing: elapsed = 37.8 ms.
Peak memory used = 46.8 Mbytes.
Simulation started at: 5:50:16 PM, Thur Jan 23, 2020, ended at: 5:51:45 PM, Thur Jan 23, 2020, with elapsed time (wall clock): 89.4 s (1m  29.4s).
spectre completes with 0 errors, 19 warnings, and 2 notices.
