
Spectre (R) Circuit Simulator
Version 16.1.0.479.isr9 32bit -- 7 Sep 2017
Copyright (C) 1989-2017 Cadence Design Systems, Inc. All rights reserved worldwide. Cadence and Spectre are registered trademarks of Cadence Design Systems, Inc. All others are the property of their respective holders.

Includes RSA BSAFE(R) Cryptographic or Security Protocol Software from RSA Security, Inc.

User: farooq   Host: eeapps01.seas.ucla.edu   HostID: 43A4F164   PID: 113671
Memory  available: 27.6159 GB  physical: 67.4342 GB
Linux   : Red Hat Enterprise Linux Server release 6.10 (Santiago)
CPU Type: Intel(R) Xeon(R) CPU E5-2630 v3 @ 2.40GHz
        Socket: Processors [Frequency] (Hyperthreaded Processor)
        0:       0 [1200.0] ( 16 ),  2 [1200.0] ( 18 ),  4 [1200.0] ( 20 )
                 6 [1200.0] ( 22 ),  8 [1200.0] ( 24 ), 10 [1200.0] ( 26 )
                12 [1200.0] ( 28 ), 14 [1200.0] ( 30 )
        1:       1 [2401.0] ( 17 ),  3 [1200.0] ( 19 ),  5 [1200.0] ( 21 )
                 7 [1200.0] ( 23 ),  9 [1200.0] ( 25 ), 11 [1200.0] ( 27 )
                13 [1200.0] ( 29 ), 15 [1200.0] ( 31 )
        
System load averages (1min, 5min, 15min) : 3.6 %, 3.4 %, 3.2 %
Hyperthreading is enabled


Simulating `input.scs' on eeapps01.seas.ucla.edu at 10:49:48 AM, Sat Mar 7, 2020 (process id: 113671).
Current working directory: /w/home.15/ee/ugrad/farooq/simulation/tb_Abs_Value_Detector/spectre/schematic/netlist
Command line:
    /w/apps3/Cadence/SPECTRE161/tools/bin/spectre input.scs +escchars  \
        +log ../psf/spectre.out +inter=mpsc  \
        +mpssession=spectre0_108614_8 -format sst2 -raw ../psf  \
        +lqtimeout 900 -maxw 5 -maxn 5
spectre pid = 113671

Loading /w/apps3/Cadence/SPECTRE161/tools.lnx86/cmi/lib/5.0/libinfineon_sh.so ...
Loading /w/apps3/Cadence/SPECTRE161/tools.lnx86/cmi/lib/5.0/libphilips_o_sh.so ...
Loading /w/apps3/Cadence/SPECTRE161/tools.lnx86/cmi/lib/5.0/libphilips_sh.so ...
Loading /w/apps3/Cadence/SPECTRE161/tools.lnx86/cmi/lib/5.0/libsparam_sh.so ...
Loading /w/apps3/Cadence/SPECTRE161/tools.lnx86/cmi/lib/5.0/libstmodels_sh.so ...
Reading file:  /w/home.15/ee/ugrad/farooq/simulation/tb_Abs_Value_Detector/spectre/schematic/netlist/input.scs
Reading file:  /w/apps3/Cadence/SPECTRE161/tools.lnx86/spectre/etc/configs/mapsubckt.cfg
Reading file:  /w/apps3/Cadence/SPECTRE161/tools.lnx86/spectre/etc/configs/spectre.cfg
Reading link:  /usr/public.2
Reading file:  /w/apps2/public.2/ee115c/cadence-labs/gpdk090_v3.4/models/spectre/gpdk090.scs
Reading file:  /w/apps2/public.2/ee115c/cadence-labs/gpdk090_v3.4/models/spectre/gpdk090_mos.scs
Reading file:  /w/apps2/public.2/ee115c/cadence-labs/gpdk090_v3.4/models/spectre/gpdk090_mos_iso.scs
Reading file:  /w/apps2/public.2/ee115c/cadence-labs/gpdk090_v3.4/models/spectre/gpdk090_moscap.scs
Reading file:  /w/apps2/public.2/ee115c/cadence-labs/gpdk090_v3.4/models/spectre/gpdk090_resistor.scs
Reading file:  /w/apps2/public.2/ee115c/cadence-labs/gpdk090_v3.4/models/spectre/resd_va.va
Reading link:  /w/apps3/Cadence/SPECTRE161/tools.lnx86/spectre/etc/ahdl/constants.h
Reading file:  /w/apps3/Cadence/SPECTRE161/tools.lnx86/spectre/etc/ahdl/constants.vams
Reading link:  /w/apps3/Cadence/SPECTRE161/tools.lnx86/spectre/etc/ahdl/discipline.h
Reading file:  /w/apps3/Cadence/SPECTRE161/tools.lnx86/spectre/etc/ahdl/disciplines.vams
Reading file:  /w/apps2/public.2/ee115c/cadence-labs/gpdk090_v3.4/models/spectre/gpdk090_capacitor.scs
Reading file:  /w/apps2/public.2/ee115c/cadence-labs/gpdk090_v3.4/models/spectre/gpdk090_diode.scs
Reading file:  /w/apps2/public.2/ee115c/cadence-labs/gpdk090_v3.4/models/spectre/gpdk090_bipolar.scs
Time for NDB Parsing: CPU = 233.964 ms, elapsed = 352.463 ms.
Time accumulated: CPU = 263.959 ms, elapsed = 352.472 ms.
Peak resident memory used = 35.5 Mbytes.


The CPU load for active processors is :
        Spectre  0 (5.7 %)       1 (100.0 %)     2 (22.9 %)     16 (2.9 %)
                18 (5.9 %)      20 (11.4 %)     21 (2.9 %)      23 (2.9 %)
                24 (40.0 %)     
        Other   

Warning from spectre in `XOR2X1':`I18.I15.I4', in `magnitude_detector':`I18.I15', in `Abs_Value_Detector':`I18', during hierarchy flattening.
    WARNING (SFE-30): "input.scs" 15: I18.I15.I4.mp3: `simM' is not a valid parameter for an instance of `gpdk090_pmos1v'.  Ignored.
    WARNING (SFE-30): "input.scs" 17: I18.I15.I4.mp1: `simM' is not a valid parameter for an instance of `gpdk090_pmos1v'.  Ignored.
    WARNING (SFE-30): "input.scs" 19: I18.I15.I4.mp4: `simM' is not a valid parameter for an instance of `gpdk090_pmos1v'.  Ignored.
    WARNING (SFE-30): "input.scs" 21: I18.I15.I4.mp0: `simM' is not a valid parameter for an instance of `gpdk090_pmos1v'.  Ignored.
    WARNING (SFE-30): "input.scs" 23: I18.I15.I4.mp5: `simM' is not a valid parameter for an instance of `gpdk090_pmos1v'.  Ignored.
        Further occurrences of this warning will be suppressed.

Time for Elaboration: CPU = 28.995 ms, elapsed = 30.344 ms.
Time accumulated: CPU = 292.954 ms, elapsed = 383.077 ms.
Peak resident memory used = 39.8 Mbytes.


Time for EDB Visiting: CPU = 5 ms, elapsed = 4.38786 ms.
Time accumulated: CPU = 297.954 ms, elapsed = 387.584 ms.
Peak resident memory used = 41 Mbytes.


Warning from spectre during initial setup.
    WARNING (CMI-2419): gpdk090_pmos1v: `imax' = 1 A is larger than `imelt' = 10 mA.  `imelt' is increased to `imax'.
    WARNING (CMI-2477): I20.I9.mp0: `Rds' = 12.1875 uOhm is less than 0.001. Set to 0.
    WARNING (CMI-2477): I19.I0.mp0: `Rds' = 375.18 nOhm is less than 0.001. Set to 0.
    WARNING (CMI-2477): I18.I14.I16.I3.mp0: `Rds' = 22.2857 uOhm is less than 0.001. Set to 0.
    WARNING (CMI-2419): gpdk090_nmos1v: `imax' = 1 A is larger than `imelt' = 10 mA.  `imelt' is increased to `imax'.


Global user options:
             reltol = 0.001
            vabstol = 1e-06
            iabstol = 1e-12
               temp = 27
               gmin = 1e-12
             rforce = 1
           maxnotes = 5
           maxwarns = 5
             digits = 5
               cols = 80
             pivrel = 0.001
           sensfile = ../psf/sens.output
     checklimitdest = psf
               save = allpub
               tnom = 27
             scalem = 1
              scale = 1

Scoped user options:

Circuit inventory:
              nodes 167
            bsim3v3 314   
            vsource 10    

Analysis and control statement inventory:
                 dc 1     
               info 8     
               tran 1     

Output statements:
             .probe 0     
           .measure 0     
               save 1     


Warning from spectre during initial setup.
    WARNING (CMI-2477): I20.I9.mp0: `Rds' = 12.1875 uOhm is less than 0.001. Set to 0.
    WARNING (CMI-2477): I19.I0.mp0: `Rds' = 375.18 nOhm is less than 0.001. Set to 0.
        Further occurrences of this warning will be suppressed.
Notice from spectre.
    310 warnings suppressed.

Time for parsing: CPU = 7.999 ms, elapsed = 9.17506 ms.
Time accumulated: CPU = 305.953 ms, elapsed = 396.87 ms.
Peak resident memory used = 42.6 Mbytes.

~~~~~~~~~~~~~~~~~~~~~~
Pre-Simulation Summary
~~~~~~~~~~~~~~~~~~~~~~
~~~~~~~~~~~~~~~~~~~~~~
Entering remote command mode using MPSC service (spectre, ipi, v0.0, spectre0_108614_8, ).

**************************************************
Transient Analysis `tran': time = (0 s -> 90.1 ns)
**************************************************

Notice from spectre during IC analysis, during transient analysis `tran'.
    GminDC = 1 pS is large enough to noticeably affect the DC solution.
        dV(I18.I14.I16.I3.mp1:int_s) = -1.18826 mV
        Use the `gmin_check' option to eliminate or expand this report.


Opening the SST2 file ../psf/tran.tran.trn ...
Important parameter values:
    start = 0 s
    outputstart = 0 s
    stop = 90.1 ns
    step = 90.1 ps
    maxstep = 1.802 ns
    ic = all
    useprevic = no
    skipdc = no
    reltol = 1e-03
    abstol(V) = 1 uV
    abstol(I) = 1 pA
    temp = 27 C
    tnom = 27 C
    tempeffects = all
    errpreset = moderate
    method = traponly
    lteratio = 3.5
    relref = sigglobal
    cmin = 0 F
    gmin = 1 pS


Output and IC/nodeset summary:
                 save   10      (current)
                 save   171     (voltage)

    tran: time = 2.793 ns     (3.1 %), step = 1.442 ns      (1.6 %)
    tran: time = 8.199 ns     (9.1 %), step = 1.802 ns        (2 %)
    tran: time = 11.36 ns    (12.6 %), step = 141.3 ps     (157 m%)
    tran: time = 17.53 ns    (19.5 %), step = 1.802 ns        (2 %)

Notice from spectre at time = 19.3322 ns during transient analysis `tran'.
    Found trapezoidal ringing on node V1:p.
Notice from spectre at time = 21.1342 ns during transient analysis `tran'.
    Found trapezoidal ringing on node V1:p.

    tran: time = 21.13 ns    (23.5 %), step = 1.802 ns        (2 %)

Notice from spectre at time = 22.9362 ns during transient analysis `tran'.
    Found trapezoidal ringing on node V1:p.
Notice from spectre at time = 24.7382 ns during transient analysis `tran'.
    Found trapezoidal ringing on node V1:p.
Notice from spectre at time = 26.5402 ns during transient analysis `tran'.
    Found trapezoidal ringing on node V1:p.
        Further occurrences of this notice will be suppressed.

    tran: time = 26.54 ns    (29.5 %), step = 1.802 ns        (2 %)
    tran: time = 30.14 ns    (33.5 %), step = 1.802 ns        (2 %)
    tran: time = 35.55 ns    (39.5 %), step = 1.802 ns        (2 %)
    tran: time = 39.15 ns    (43.5 %), step = 1.802 ns        (2 %)
    tran: time = 44.56 ns    (49.5 %), step = 1.802 ns        (2 %)
    tran: time = 48.16 ns    (53.5 %), step = 1.802 ns        (2 %)
    tran: time = 53.57 ns    (59.5 %), step = 1.802 ns        (2 %)
    tran: time = 57.17 ns    (63.5 %), step = 1.802 ns        (2 %)
    tran: time = 62.58 ns    (69.5 %), step = 1.802 ns        (2 %)
    tran: time = 66.18 ns    (73.5 %), step = 1.802 ns        (2 %)
    tran: time = 71.59 ns    (79.5 %), step = 1.802 ns        (2 %)
    tran: time = 75.19 ns    (83.5 %), step = 1.802 ns        (2 %)
    tran: time = 80.6 ns     (89.5 %), step = 1.802 ns        (2 %)
    tran: time = 84.2 ns     (93.5 %), step = 1.802 ns        (2 %)
    tran: time = 88.95 ns    (98.7 %), step = 1.146 ns     (1.27 %)
Number of accepted tran steps =             193

Notice from spectre during transient analysis `tran'.
    Trapezoidal ringing is detected during tran analysis.
        Please use method=trap for better results and performance.


Maximum value achieved for any signal of each quantity: 
V: V(I20.net44) = 1 V
I: I(V1:p) = 727 uA
If your circuit contains signals of the same quantity that are vastly different in size (such as high voltage circuitry combined with low voltage control circuitry), you should consider specifying global option `bin_relref=yes'.

~~~~~~~~~~~~~~~~~~~~~~~~~~~~~~~~~
Post-Transient Simulation Summary
~~~~~~~~~~~~~~~~~~~~~~~~~~~~~~~~~
   -   To further speed up simulation, consider
          add ++aps on command line
~~~~~~~~~~~~~~~~~~~~~~~~~~~~~~~~~


During simulation, the CPU load for active processors is :
        Spectre  0 (13.0 %)      1 (100.0 %)     2 (60.6 %)      4 (1.1 %)
                 6 (1.1 %)       8 (1.1 %)      16 (4.4 %)      18 (3.3 %)
                20 (4.3 %)      21 (1.1 %)      23 (1.1 %)      24 (19.6 %)
        Other   
Initial condition solution time: CPU = 31.995 ms, elapsed = 32.326 ms.
Intrinsic tran analysis time:    CPU = 451.932 ms, elapsed = 455.069 ms.
Total time required for tran analysis `tran': CPU = 487.925 ms, elapsed = 494.837 ms.
Time accumulated: CPU = 799.877 ms, elapsed = 938.398 ms.
Peak resident memory used = 49 Mbytes.


Notice from spectre.
    36 notices suppressed.

finalTimeOP: writing operating point information to rawfile.

Opening the PSF file ../psf/finalTimeOP.info ...

******************
DC Analysis `dcOp'
******************

Opening the PSF file ../psf/dcOp.dc ...
Important parameter values:
    reltol = 1e-03
    abstol(V) = 1 uV
    abstol(I) = 1 pA
    temp = 27 C
    tnom = 27 C
    tempeffects = all
    gmindc = 1 pS

Notice from spectre during DC analysis `dcOp'.
    GminDC = 1 pS is large enough to noticeably affect the DC solution.
        dV(I18.I14.I16.I3.mp1:int_s) = -1.18826 mV
        Use the `gmin_check' option to eliminate or expand this report.
    Bad pivoting is found during DC analysis. Option dc_pivot_check=yes is recommended for possible improvement of convergence.


Maximum value achieved for any signal of each quantity: 
V: V(I20.net44) = 1 V
I: I(V0:p) = 707.7 nA
Convergence achieved in 25 iterations.
DC simulation time: CPU = 831.873 ms, elapsed = 976.766 ms.
Total time required for dc analysis `dcOp': CPU = 17.997 ms, elapsed = 20.5388 ms.
Time accumulated: CPU = 832.873 ms, elapsed = 977.854 ms.
Peak resident memory used = 49 Mbytes.

dcOpInfo: writing operating point information to rawfile.

Opening the PSF file ../psf/dcOpInfo.info ...
modelParameter: writing model parameter values to rawfile.

Opening the PSF file ../psf/modelParameter.info ...
element: writing instance parameter values to rawfile.

Opening the PSF file ../psf/element.info ...
outputParameter: writing output parameter values to rawfile.

Opening the PSF file ../psf/outputParameter.info ...
designParamVals: writing netlist parameters to rawfile.

Opening the PSF file ../psf/designParamVals.info ...
primitives: writing primitives to rawfile.

Opening the PSF file ../psf/primitives.info.primitives ...
subckts: writing subcircuits to rawfile.

Opening the PSF file ../psf/subckts.info.subckts ...

Warning from spectre.
    WARNING (CMI-2419): gpdk090_pmos1v: `imax' = 1 A is larger than `imelt' = 10 mA.  `imelt' is increased to `imax'.
    WARNING (CMI-2477): I20.I9.mp0: `Rds' = 12.1875 uOhm is less than 0.001. Set to 0.
    WARNING (CMI-2477): I19.I0.mp0: `Rds' = 375.18 nOhm is less than 0.001. Set to 0.
    WARNING (CMI-2477): I18.I14.I16.I3.mp0: `Rds' = 22.2857 uOhm is less than 0.001. Set to 0.
    WARNING (CMI-2419): gpdk090_nmos1v: `imax' = 1 A is larger than `imelt' = 10 mA.  `imelt' is increased to `imax'.


**************************************************
Transient Analysis `tran': time = (0 s -> 90.1 ns)
**************************************************

Notice from spectre during IC analysis, during transient analysis `tran'.
    GminDC = 1 pS is large enough to noticeably affect the DC solution.
        dV(I18.I14.I16.I3.mp1:int_s) = -1.51588 mV
        Use the `gmin_check' option to eliminate or expand this report.


Opening the SST2 file ../psf/tran.tran.trn ...
Important parameter values:
    start = 0 s
    outputstart = 0 s
    stop = 90.1 ns
    step = 90.1 ps
    maxstep = 1.802 ns
    ic = all
    useprevic = no
    skipdc = no
    reltol = 1e-03
    abstol(V) = 1 uV
    abstol(I) = 1 pA
    temp = 27 C
    tnom = 27 C
    tempeffects = all
    errpreset = moderate
    method = traponly
    lteratio = 3.5
    relref = sigglobal
    cmin = 0 F
    gmin = 1 pS


Output and IC/nodeset summary:
                 save   10      (current)
                 save   171     (voltage)

    tran: time = 2.793 ns     (3.1 %), step = 1.442 ns      (1.6 %)
    tran: time = 8.199 ns     (9.1 %), step = 1.802 ns        (2 %)
    tran: time = 11.3 ns     (12.5 %), step = 99.68 ps     (111 m%)
    tran: time = 15.92 ns    (17.7 %), step = 1.513 ns     (1.68 %)
    tran: time = 21.32 ns    (23.7 %), step = 1.802 ns        (2 %)
    tran: time = 24.93 ns    (27.7 %), step = 1.802 ns        (2 %)
    tran: time = 30.33 ns    (33.7 %), step = 1.802 ns        (2 %)
    tran: time = 33.94 ns    (37.7 %), step = 1.802 ns        (2 %)
    tran: time = 39.34 ns    (43.7 %), step = 1.802 ns        (2 %)
    tran: time = 42.95 ns    (47.7 %), step = 1.802 ns        (2 %)
    tran: time = 48.35 ns    (53.7 %), step = 1.802 ns        (2 %)
    tran: time = 51.96 ns    (57.7 %), step = 1.802 ns        (2 %)
    tran: time = 57.36 ns    (63.7 %), step = 1.802 ns        (2 %)
    tran: time = 60.97 ns    (67.7 %), step = 1.802 ns        (2 %)
    tran: time = 66.37 ns    (73.7 %), step = 1.802 ns        (2 %)
    tran: time = 69.98 ns    (77.7 %), step = 1.802 ns        (2 %)
    tran: time = 75.38 ns    (83.7 %), step = 1.802 ns        (2 %)
    tran: time = 78.99 ns    (87.7 %), step = 1.802 ns        (2 %)
    tran: time = 84.39 ns    (93.7 %), step = 1.802 ns        (2 %)
    tran: time = 88 ns       (97.7 %), step = 1.802 ns        (2 %)
Number of accepted tran steps =             195

Notice from spectre during transient analysis `tran'.
    Trapezoidal ringing is detected during tran analysis.
        Please use method=trap for better results and performance.


Maximum value achieved for any signal of each quantity: 
V: V(I18.I14.I12.I25.mp0:int_d) = 1.165 V
I: I(V1:p) = 2.385 mA
If your circuit contains signals of the same quantity that are vastly different in size (such as high voltage circuitry combined with low voltage control circuitry), you should consider specifying global option `bin_relref=yes'.

~~~~~~~~~~~~~~~~~~~~~~~~~~~~~~~~~
Post-Transient Simulation Summary
~~~~~~~~~~~~~~~~~~~~~~~~~~~~~~~~~
   -   To further speed up simulation, consider
          add ++aps on command line
~~~~~~~~~~~~~~~~~~~~~~~~~~~~~~~~~


During simulation, the CPU load for active processors is :
        Spectre  0 (3.7 %)       1 (1.1 %)       2 (1.7 %)      17 (99.0 %)
        Other   
Initial condition solution time: CPU = 26.996 ms, elapsed = 27.209 ms.
Intrinsic tran analysis time:    CPU = 503.923 ms, elapsed = 506.386 ms.
Total time required for tran analysis `tran': CPU = 532.919 ms, elapsed = 538.451 ms.
Time accumulated: CPU = 1.44578 s, elapsed = 231.101 s (3m  51.1s).
Peak resident memory used = 49.9 Mbytes.

finalTimeOP: writing operating point information to rawfile.

Opening the PSF file ../psf/finalTimeOP.info ...

******************
DC Analysis `dcOp'
******************

Opening the PSF file ../psf/dcOp.dc ...
Important parameter values:
    reltol = 1e-03
    abstol(V) = 1 uV
    abstol(I) = 1 pA
    temp = 27 C
    tnom = 27 C
    tempeffects = all
    gmindc = 1 pS

Notice from spectre during DC analysis `dcOp'.
    GminDC = 1 pS is large enough to noticeably affect the DC solution.
        dV(I18.I14.I16.I3.mp1:int_s) = -1.51588 mV
        Use the `gmin_check' option to eliminate or expand this report.
    Bad pivoting is found during DC analysis. Option dc_pivot_check=yes is recommended for possible improvement of convergence.


Maximum value achieved for any signal of each quantity: 
V: V(I20.net44) = 1 V
I: I(V0:p) = 1.5 uA
Convergence achieved in 26 iterations.
DC simulation time: CPU = 1.47677 s, elapsed = 231.139 s.
Total time required for dc analysis `dcOp': CPU = 16.997 ms, elapsed = 20.1201 ms.
Time accumulated: CPU = 1.47777 s, elapsed = 231.14 s (3m  51.1s).
Peak resident memory used = 49.9 Mbytes.

dcOpInfo: writing operating point information to rawfile.

Opening the PSF file ../psf/dcOpInfo.info ...
modelParameter: writing model parameter values to rawfile.

Opening the PSF file ../psf/modelParameter.info ...
element: writing instance parameter values to rawfile.

Opening the PSF file ../psf/element.info ...
outputParameter: writing output parameter values to rawfile.

Opening the PSF file ../psf/outputParameter.info ...
designParamVals: writing netlist parameters to rawfile.

Opening the PSF file ../psf/designParamVals.info ...
primitives: writing primitives to rawfile.

Opening the PSF file ../psf/primitives.info.primitives ...
subckts: writing subcircuits to rawfile.

Opening the PSF file ../psf/subckts.info.subckts ...

Aggregate audit (11:27:23 AM, Sat Mar 7, 2020):
Time used: CPU = 1.59 s, elapsed = 2.25 ks (37m  34.4s), util. = 70.6e-03%.
Time spent in licensing: elapsed = 38 ms.
Peak memory used = 49.9 Mbytes.
Simulation started at: 10:49:48 AM, Sat Mar 7, 2020, ended at: 11:27:23 AM, Sat Mar 7, 2020, with elapsed time (wall clock): 2.25 ks (37m  34.4s).
spectre completes with 0 errors, 17 warnings, and 15 notices.
