
Spectre (R) Circuit Simulator
Version 16.1.0.479.isr9 32bit -- 7 Sep 2017
Copyright (C) 1989-2017 Cadence Design Systems, Inc. All rights reserved worldwide. Cadence and Spectre are registered trademarks of Cadence Design Systems, Inc. All others are the property of their respective holders.

Includes RSA BSAFE(R) Cryptographic or Security Protocol Software from RSA Security, Inc.

User: farooq   Host: eeapps03.seas.ucla.edu   HostID: 43A4F364   PID: 153962
Memory  available: 55.6355 GB  physical: 67.4342 GB
Linux   : Red Hat Enterprise Linux Server release 6.10 (Santiago)
CPU Type: Intel(R) Xeon(R) CPU E5-2630 v3 @ 2.40GHz
All processors running at 1200.0 MHz
        Socket: Processors (Hyperthreaded Processor)
        0:       0 ( 16 ),  2 ( 18 ),  4 ( 20 ),  6 ( 22 ),  8 ( 24 )
                10 ( 26 ), 12 ( 28 ), 14 ( 30 )
        1:       1 ( 17 ),  3 ( 19 ),  5 ( 21 ),  7 ( 23 ),  9 ( 25 )
                11 ( 27 ), 13 ( 29 ), 15 ( 31 )
        
System load averages (1min, 5min, 15min) : 1.1 %, 0.6 %, 0.3 %
Hyperthreading is enabled


Simulating `input.scs' on eeapps03.seas.ucla.edu at 3:31:56 PM, Tue Jan 14, 2020 (process id: 153962).
Current working directory: /w/home.15/ee/ugrad/farooq/ee115c/cadence-labs/simulation/MOS_IV/spectre/schematic/netlist
Command line:
    /w/apps3/Cadence/SPECTRE161/tools/bin/spectre input.scs +escchars  \
        +log ../psf/spectre.out +inter=mpsc  \
        +mpssession=spectre0_150473_1 -format psfxl -raw ../psf  \
        +lqtimeout 900 -maxw 5 -maxn 5
spectre pid = 153962

Loading /w/apps3/Cadence/SPECTRE161/tools.lnx86/cmi/lib/5.0/libinfineon_sh.so ...
Loading /w/apps3/Cadence/SPECTRE161/tools.lnx86/cmi/lib/5.0/libphilips_o_sh.so ...
Loading /w/apps3/Cadence/SPECTRE161/tools.lnx86/cmi/lib/5.0/libphilips_sh.so ...
Loading /w/apps3/Cadence/SPECTRE161/tools.lnx86/cmi/lib/5.0/libsparam_sh.so ...
Loading /w/apps3/Cadence/SPECTRE161/tools.lnx86/cmi/lib/5.0/libstmodels_sh.so ...
Reading file:  /w/home.15/ee/ugrad/farooq/ee115c/cadence-labs/simulation/MOS_IV/spectre/schematic/netlist/input.scs
Reading file:  /w/apps3/Cadence/SPECTRE161/tools.lnx86/spectre/etc/configs/mapsubckt.cfg
Reading file:  /w/apps3/Cadence/SPECTRE161/tools.lnx86/spectre/etc/configs/spectre.cfg
Reading link:  /usr/public.2
Reading file:  /w/apps2/public.2/ee115c/cadence-labs/gpdk090_v3.4/models/spectre/gpdk090.scs
Reading file:  /w/apps2/public.2/ee115c/cadence-labs/gpdk090_v3.4/models/spectre/gpdk090_mos.scs
Reading file:  /w/apps2/public.2/ee115c/cadence-labs/gpdk090_v3.4/models/spectre/gpdk090_mos_iso.scs
Reading file:  /w/apps2/public.2/ee115c/cadence-labs/gpdk090_v3.4/models/spectre/gpdk090_moscap.scs
Reading file:  /w/apps2/public.2/ee115c/cadence-labs/gpdk090_v3.4/models/spectre/gpdk090_resistor.scs
Reading file:  /w/apps2/public.2/ee115c/cadence-labs/gpdk090_v3.4/models/spectre/resd_va.va
Reading link:  /w/apps3/Cadence/SPECTRE161/tools.lnx86/spectre/etc/ahdl/discipline.h
Reading file:  /w/apps3/Cadence/SPECTRE161/tools.lnx86/spectre/etc/ahdl/disciplines.vams
Reading link:  /w/apps3/Cadence/SPECTRE161/tools.lnx86/spectre/etc/ahdl/constants.h
Reading file:  /w/apps3/Cadence/SPECTRE161/tools.lnx86/spectre/etc/ahdl/constants.vams
Reading file:  /w/apps2/public.2/ee115c/cadence-labs/gpdk090_v3.4/models/spectre/gpdk090_capacitor.scs
Reading file:  /w/apps2/public.2/ee115c/cadence-labs/gpdk090_v3.4/models/spectre/gpdk090_diode.scs
Reading file:  /w/apps2/public.2/ee115c/cadence-labs/gpdk090_v3.4/models/spectre/gpdk090_bipolar.scs
Time for NDB Parsing: CPU = 295.954 ms, elapsed = 1.81975 s.
Time accumulated: CPU = 372.942 ms, elapsed = 1.81976 s.
Peak resident memory used = 36.6 Mbytes.


The CPU load for active processors is :
        Spectre  0 (14.5 %)      2 (6.1 %)       4 (1.1 %)       5 (1.1 %)
                 6 (2.2 %)      16 (1.1 %)      18 (2.7 %)      19 (1.7 %)
                20 (9.1 %)      
        Other   

Warning from spectre during hierarchy flattening.
    WARNING (SFE-30): "input.scs" 14: NM0: `simM' is not a valid parameter for an instance of `gpdk090_nmos1v'.  Ignored.
    WARNING (SFE-30): "input.scs" 16: PM0: `simM' is not a valid parameter for an instance of `gpdk090_pmos1v'.  Ignored.

Time for Elaboration: CPU = 31.995 ms, elapsed = 55.3331 ms.
Time accumulated: CPU = 404.937 ms, elapsed = 1.87537 s.
Peak resident memory used = 40.4 Mbytes.


Time for EDB Visiting: CPU = 2 ms, elapsed = 2.17795 ms.
Time accumulated: CPU = 406.937 ms, elapsed = 1.8778 s.
Peak resident memory used = 40.9 Mbytes.


Warning from spectre during initial setup.
    WARNING (CMI-2419): gpdk090_pmos1v: `imax' = 1 A is larger than `imelt' = 10 mA.  `imelt' is increased to `imax'.
    WARNING (CMI-2477): PM0: `Rds' = 16.5957 uOhm is less than 0.001. Set to 0.
    WARNING (CMI-2419): gpdk090_nmos1v: `imax' = 1 A is larger than `imelt' = 10 mA.  `imelt' is increased to `imax'.
Notice from spectre during topology check.
    No connections to node `0'.
    No DC path from node `net3' to ground, Gmin installed to provide path.


Global user options:
             reltol = 0.001
            vabstol = 1e-06
            iabstol = 1e-12
               temp = 27
               gmin = 1e-12
             rforce = 1
           maxnotes = 5
           maxwarns = 5
             digits = 5
               cols = 80
             pivrel = 0.001
           sensfile = ../psf/sens.output
     checklimitdest = psf
               save = allpub
               tnom = 27
             scalem = 1
              scale = 1

Scoped user options:

Circuit inventory:
              nodes 6
            bsim3v3 2     
            vsource 5     

Analysis and control statement inventory:
                 dc 1     
               info 6     

Output statements:
             .probe 0     
           .measure 0     
               save 1     


Warning from spectre during initial setup.
    WARNING (CMI-2477): PM0: `Rds' = 16.5957 uOhm is less than 0.001. Set to 0.

Time for parsing: CPU = 4 ms, elapsed = 43.4511 ms.
Time accumulated: CPU = 410.937 ms, elapsed = 1.92148 s.
Peak resident memory used = 42 Mbytes.

~~~~~~~~~~~~~~~~~~~~~~
Pre-Simulation Summary
~~~~~~~~~~~~~~~~~~~~~~

Warning from spectre.
    WARNING (SPECTRE-470): No connections to node `gnd'.

~~~~~~~~~~~~~~~~~~~~~~
Entering remote command mode using MPSC service (spectre, ipi, v0.0, spectre0_150473_1, ).

Warning from spectre.
    WARNING (SPECTRE-16707): Only tran supports psfxl format, result of other analyses will be in psfbin format.


********************************
DC Analysis `dc': VDS = (0 -> 1)
********************************

Warning from spectre during DC analysis `dc'.
    WARNING (CMI-2477): PM0: `Rds' = 16.5957 uOhm is less than 0.001. Set to 0.


Opening the PSF file ../psf/dc.dc ...
Important parameter values:
    reltol = 1e-03
    abstol(V) = 1 uV
    abstol(I) = 1 pA
    temp = 27 C
    tnom = 27 C
    tempeffects = all
    gmindc = 1 pS
    dc: VDS = 50e-03         (5 %), step = 50e-03          (5 %)
    dc: VDS = 100e-03       (10 %), step = 50e-03          (5 %)
    dc: VDS = 150e-03       (15 %), step = 50e-03          (5 %)
    dc: VDS = 200e-03       (20 %), step = 50e-03          (5 %)
    dc: VDS = 250e-03       (25 %), step = 50e-03          (5 %)
    dc: VDS = 300e-03       (30 %), step = 50e-03          (5 %)
    dc: VDS = 350e-03       (35 %), step = 50e-03          (5 %)
    dc: VDS = 400e-03       (40 %), step = 50e-03          (5 %)
    dc: VDS = 450e-03       (45 %), step = 50e-03          (5 %)
    dc: VDS = 500e-03       (50 %), step = 50e-03          (5 %)
    dc: VDS = 550e-03       (55 %), step = 50e-03          (5 %)
    dc: VDS = 600e-03       (60 %), step = 50e-03          (5 %)
    dc: VDS = 650e-03       (65 %), step = 50e-03          (5 %)
    dc: VDS = 700e-03       (70 %), step = 50e-03          (5 %)
    dc: VDS = 750e-03       (75 %), step = 50e-03          (5 %)
    dc: VDS = 800e-03       (80 %), step = 50e-03          (5 %)
    dc: VDS = 850e-03       (85 %), step = 50e-03          (5 %)
    dc: VDS = 900e-03       (90 %), step = 50e-03          (5 %)
    dc: VDS = 950e-03       (95 %), step = 50e-03          (5 %)
    dc: VDS = 1            (100 %), step = 50e-03          (5 %)

Maximum value achieved for any signal of each quantity: 
V: V(net1) = 1 V
I: I(V3:p) = 2.947 uA
DC simulation time: CPU = 420.935 ms, elapsed = 1.93981 s.
Total time required for dc analysis `dc': CPU = 8.998 ms, elapsed = 11.3878 ms.
Time accumulated: CPU = 421.935 ms, elapsed = 1.94062 s.
Peak resident memory used = 43.4 Mbytes.

modelParameter: writing model parameter values to rawfile.

Opening the PSF file ../psf/modelParameter.info ...
element: writing instance parameter values to rawfile.

Opening the PSF file ../psf/element.info ...
outputParameter: writing output parameter values to rawfile.

Opening the PSF file ../psf/outputParameter.info ...
designParamVals: writing netlist parameters to rawfile.

Opening the PSFASCII file ../psf/designParamVals.info ...
primitives: writing primitives to rawfile.

Opening the PSFASCII file ../psf/primitives.info.primitives ...
subckts: writing subcircuits to rawfile.

Opening the PSFASCII file ../psf/subckts.info.subckts ...

Warning from spectre.
    WARNING (CMI-2419): gpdk090_pmos1v: `imax' = 1 A is larger than `imelt' = 10 mA.  `imelt' is increased to `imax'.
    WARNING (CMI-2477): PM0: `Rds' = 16.5957 uOhm is less than 0.001. Set to 0.
    WARNING (CMI-2419): gpdk090_nmos1v: `imax' = 1 A is larger than `imelt' = 10 mA.  `imelt' is increased to `imax'.
    WARNING (SPECTRE-16707): Only tran supports psfxl format, result of other analyses will be in psfbin format.


********************************
DC Analysis `dc': VDS = (0 -> 1)
********************************

Opening the PSF file ../psf/dc.dc ...
Important parameter values:
    reltol = 1e-03
    abstol(V) = 1 uV
    abstol(I) = 1 pA
    temp = 27 C
    tnom = 27 C
    tempeffects = all
    gmindc = 1 pS
    dc: VDS = 50e-03         (5 %), step = 50e-03          (5 %)
    dc: VDS = 100e-03       (10 %), step = 50e-03          (5 %)
    dc: VDS = 150e-03       (15 %), step = 50e-03          (5 %)
    dc: VDS = 200e-03       (20 %), step = 50e-03          (5 %)
    dc: VDS = 250e-03       (25 %), step = 50e-03          (5 %)
    dc: VDS = 300e-03       (30 %), step = 50e-03          (5 %)
    dc: VDS = 350e-03       (35 %), step = 50e-03          (5 %)
    dc: VDS = 400e-03       (40 %), step = 50e-03          (5 %)
    dc: VDS = 450e-03       (45 %), step = 50e-03          (5 %)
    dc: VDS = 500e-03       (50 %), step = 50e-03          (5 %)
    dc: VDS = 550e-03       (55 %), step = 50e-03          (5 %)
    dc: VDS = 600e-03       (60 %), step = 50e-03          (5 %)
    dc: VDS = 650e-03       (65 %), step = 50e-03          (5 %)
    dc: VDS = 700e-03       (70 %), step = 50e-03          (5 %)
    dc: VDS = 750e-03       (75 %), step = 50e-03          (5 %)
    dc: VDS = 800e-03       (80 %), step = 50e-03          (5 %)
    dc: VDS = 850e-03       (85 %), step = 50e-03          (5 %)
    dc: VDS = 900e-03       (90 %), step = 50e-03          (5 %)
    dc: VDS = 950e-03       (95 %), step = 50e-03          (5 %)
    dc: VDS = 1            (100 %), step = 50e-03          (5 %)

Maximum value achieved for any signal of each quantity: 
V: V(net1) = 1 V
I: I(V3:p) = 41.44 uA
DC simulation time: CPU = 468.928 ms, elapsed = 2.81126 s.
Total time required for dc analysis `dc': CPU = 9.999 ms, elapsed = 13.1531 ms.
Time accumulated: CPU = 469.928 ms, elapsed = 2.81228 s.
Peak resident memory used = 44 Mbytes.

modelParameter: writing model parameter values to rawfile.

Opening the PSF file ../psf/modelParameter.info ...
element: writing instance parameter values to rawfile.

Opening the PSF file ../psf/element.info ...
outputParameter: writing output parameter values to rawfile.

Opening the PSF file ../psf/outputParameter.info ...
designParamVals: writing netlist parameters to rawfile.

Opening the PSFASCII file ../psf/designParamVals.info ...
primitives: writing primitives to rawfile.

Opening the PSFASCII file ../psf/primitives.info.primitives ...
subckts: writing subcircuits to rawfile.

Opening the PSFASCII file ../psf/subckts.info.subckts ...

Warning from spectre.
    WARNING (CMI-2419): gpdk090_pmos1v: `imax' = 1 A is larger than `imelt' = 10 mA.  `imelt' is increased to `imax'.
    WARNING (CMI-2477): PM0: `Rds' = 16.5957 uOhm is less than 0.001. Set to 0.
    WARNING (CMI-2419): gpdk090_nmos1v: `imax' = 1 A is larger than `imelt' = 10 mA.  `imelt' is increased to `imax'.
    WARNING (SPECTRE-16707): Only tran supports psfxl format, result of other analyses will be in psfbin format.


********************************
DC Analysis `dc': VDS = (0 -> 1)
********************************

Opening the PSF file ../psf/dc.dc ...
Important parameter values:
    reltol = 1e-03
    abstol(V) = 1 uV
    abstol(I) = 1 pA
    temp = 27 C
    tnom = 27 C
    tempeffects = all
    gmindc = 1 pS
    dc: VDS = 50e-03         (5 %), step = 50e-03          (5 %)
    dc: VDS = 100e-03       (10 %), step = 50e-03          (5 %)
    dc: VDS = 150e-03       (15 %), step = 50e-03          (5 %)
    dc: VDS = 200e-03       (20 %), step = 50e-03          (5 %)
    dc: VDS = 250e-03       (25 %), step = 50e-03          (5 %)
    dc: VDS = 300e-03       (30 %), step = 50e-03          (5 %)
    dc: VDS = 350e-03       (35 %), step = 50e-03          (5 %)
    dc: VDS = 400e-03       (40 %), step = 50e-03          (5 %)
    dc: VDS = 450e-03       (45 %), step = 50e-03          (5 %)
    dc: VDS = 500e-03       (50 %), step = 50e-03          (5 %)
    dc: VDS = 550e-03       (55 %), step = 50e-03          (5 %)
    dc: VDS = 600e-03       (60 %), step = 50e-03          (5 %)
    dc: VDS = 650e-03       (65 %), step = 50e-03          (5 %)
    dc: VDS = 700e-03       (70 %), step = 50e-03          (5 %)
    dc: VDS = 750e-03       (75 %), step = 50e-03          (5 %)
    dc: VDS = 800e-03       (80 %), step = 50e-03          (5 %)
    dc: VDS = 850e-03       (85 %), step = 50e-03          (5 %)
    dc: VDS = 900e-03       (90 %), step = 50e-03          (5 %)
    dc: VDS = 950e-03       (95 %), step = 50e-03          (5 %)
    dc: VDS = 1            (100 %), step = 50e-03          (5 %)

Maximum value achieved for any signal of each quantity: 
V: V(net1) = 1 V
I: I(V3:p) = 118.3 uA
DC simulation time: CPU = 528.919 ms, elapsed = 3.6234 s.
Total time required for dc analysis `dc': CPU = 10.999 ms, elapsed = 12.804 ms.
Time accumulated: CPU = 528.919 ms, elapsed = 3.6243 s.
Peak resident memory used = 44.2 Mbytes.

modelParameter: writing model parameter values to rawfile.

Opening the PSF file ../psf/modelParameter.info ...
element: writing instance parameter values to rawfile.

Opening the PSF file ../psf/element.info ...
outputParameter: writing output parameter values to rawfile.

Opening the PSF file ../psf/outputParameter.info ...
designParamVals: writing netlist parameters to rawfile.

Opening the PSFASCII file ../psf/designParamVals.info ...
primitives: writing primitives to rawfile.

Opening the PSFASCII file ../psf/primitives.info.primitives ...
subckts: writing subcircuits to rawfile.

Opening the PSFASCII file ../psf/subckts.info.subckts ...

Warning from spectre.
    WARNING (CMI-2419): gpdk090_pmos1v: `imax' = 1 A is larger than `imelt' = 10 mA.  `imelt' is increased to `imax'.
    WARNING (CMI-2477): PM0: `Rds' = 16.5957 uOhm is less than 0.001. Set to 0.
    WARNING (CMI-2419): gpdk090_nmos1v: `imax' = 1 A is larger than `imelt' = 10 mA.  `imelt' is increased to `imax'.
    WARNING (SPECTRE-16707): Only tran supports psfxl format, result of other analyses will be in psfbin format.


********************************
DC Analysis `dc': VDS = (0 -> 1)
********************************

Opening the PSF file ../psf/dc.dc ...
Important parameter values:
    reltol = 1e-03
    abstol(V) = 1 uV
    abstol(I) = 1 pA
    temp = 27 C
    tnom = 27 C
    tempeffects = all
    gmindc = 1 pS
    dc: VDS = 50e-03         (5 %), step = 50e-03          (5 %)
    dc: VDS = 100e-03       (10 %), step = 50e-03          (5 %)
    dc: VDS = 150e-03       (15 %), step = 50e-03          (5 %)
    dc: VDS = 200e-03       (20 %), step = 50e-03          (5 %)
    dc: VDS = 250e-03       (25 %), step = 50e-03          (5 %)
    dc: VDS = 300e-03       (30 %), step = 50e-03          (5 %)
    dc: VDS = 350e-03       (35 %), step = 50e-03          (5 %)
    dc: VDS = 400e-03       (40 %), step = 50e-03          (5 %)
    dc: VDS = 450e-03       (45 %), step = 50e-03          (5 %)
    dc: VDS = 500e-03       (50 %), step = 50e-03          (5 %)
    dc: VDS = 550e-03       (55 %), step = 50e-03          (5 %)
    dc: VDS = 600e-03       (60 %), step = 50e-03          (5 %)
    dc: VDS = 650e-03       (65 %), step = 50e-03          (5 %)
    dc: VDS = 700e-03       (70 %), step = 50e-03          (5 %)
    dc: VDS = 750e-03       (75 %), step = 50e-03          (5 %)
    dc: VDS = 800e-03       (80 %), step = 50e-03          (5 %)
    dc: VDS = 850e-03       (85 %), step = 50e-03          (5 %)
    dc: VDS = 900e-03       (90 %), step = 50e-03          (5 %)
    dc: VDS = 950e-03       (95 %), step = 50e-03          (5 %)
    dc: VDS = 1            (100 %), step = 50e-03          (5 %)

Maximum value achieved for any signal of each quantity: 
V: V(net1) = 1 V
I: I(V3:p) = 209.5 uA
DC simulation time: CPU = 573.912 ms, elapsed = 4.44638 s.
Total time required for dc analysis `dc': CPU = 10.999 ms, elapsed = 12.7771 ms.
Time accumulated: CPU = 573.912 ms, elapsed = 4.44737 s.
Peak resident memory used = 44.4 Mbytes.

modelParameter: writing model parameter values to rawfile.

Opening the PSF file ../psf/modelParameter.info ...
element: writing instance parameter values to rawfile.

Opening the PSF file ../psf/element.info ...
outputParameter: writing output parameter values to rawfile.

Opening the PSF file ../psf/outputParameter.info ...
designParamVals: writing netlist parameters to rawfile.

Opening the PSFASCII file ../psf/designParamVals.info ...
primitives: writing primitives to rawfile.

Opening the PSFASCII file ../psf/primitives.info.primitives ...
subckts: writing subcircuits to rawfile.

Opening the PSFASCII file ../psf/subckts.info.subckts ...

Warning from spectre.
    WARNING (CMI-2419): gpdk090_pmos1v: `imax' = 1 A is larger than `imelt' = 10 mA.  `imelt' is increased to `imax'.
    WARNING (CMI-2477): PM0: `Rds' = 16.5957 uOhm is less than 0.001. Set to 0.
    WARNING (CMI-2419): gpdk090_nmos1v: `imax' = 1 A is larger than `imelt' = 10 mA.  `imelt' is increased to `imax'.
    WARNING (SPECTRE-16707): Only tran supports psfxl format, result of other analyses will be in psfbin format.


********************************
DC Analysis `dc': VDS = (0 -> 1)
********************************

Opening the PSF file ../psf/dc.dc ...
Important parameter values:
    reltol = 1e-03
    abstol(V) = 1 uV
    abstol(I) = 1 pA
    temp = 27 C
    tnom = 27 C
    tempeffects = all
    gmindc = 1 pS
    dc: VDS = 50e-03         (5 %), step = 50e-03          (5 %)
    dc: VDS = 100e-03       (10 %), step = 50e-03          (5 %)
    dc: VDS = 150e-03       (15 %), step = 50e-03          (5 %)
    dc: VDS = 200e-03       (20 %), step = 50e-03          (5 %)
    dc: VDS = 250e-03       (25 %), step = 50e-03          (5 %)
    dc: VDS = 300e-03       (30 %), step = 50e-03          (5 %)
    dc: VDS = 350e-03       (35 %), step = 50e-03          (5 %)
    dc: VDS = 400e-03       (40 %), step = 50e-03          (5 %)
    dc: VDS = 450e-03       (45 %), step = 50e-03          (5 %)
    dc: VDS = 500e-03       (50 %), step = 50e-03          (5 %)
    dc: VDS = 550e-03       (55 %), step = 50e-03          (5 %)
    dc: VDS = 600e-03       (60 %), step = 50e-03          (5 %)
    dc: VDS = 650e-03       (65 %), step = 50e-03          (5 %)
    dc: VDS = 700e-03       (70 %), step = 50e-03          (5 %)
    dc: VDS = 750e-03       (75 %), step = 50e-03          (5 %)
    dc: VDS = 800e-03       (80 %), step = 50e-03          (5 %)
    dc: VDS = 850e-03       (85 %), step = 50e-03          (5 %)
    dc: VDS = 900e-03       (90 %), step = 50e-03          (5 %)
    dc: VDS = 950e-03       (95 %), step = 50e-03          (5 %)
    dc: VDS = 1            (100 %), step = 50e-03          (5 %)

Maximum value achieved for any signal of each quantity: 
V: V(net6) = 1 V
I: I(V3:p) = 305.4 uA
DC simulation time: CPU = 621.904 ms, elapsed = 5.24806 s.
Total time required for dc analysis `dc': CPU = 8.998 ms, elapsed = 45.0771 ms.
Time accumulated: CPU = 621.904 ms, elapsed = 5.24881 s.
Peak resident memory used = 44.6 Mbytes.

modelParameter: writing model parameter values to rawfile.

Opening the PSF file ../psf/modelParameter.info ...
element: writing instance parameter values to rawfile.

Opening the PSF file ../psf/element.info ...
outputParameter: writing output parameter values to rawfile.

Opening the PSF file ../psf/outputParameter.info ...
designParamVals: writing netlist parameters to rawfile.

Opening the PSFASCII file ../psf/designParamVals.info ...
primitives: writing primitives to rawfile.

Opening the PSFASCII file ../psf/primitives.info.primitives ...
subckts: writing subcircuits to rawfile.

Opening the PSFASCII file ../psf/subckts.info.subckts ...

Aggregate audit (3:32:12 PM, Tue Jan 14, 2020):
Time used: CPU = 661 ms, elapsed = 16.1 s, util. = 4.1%.
Time spent in licensing: elapsed = 44.4 ms.
Peak memory used = 45.1 Mbytes.
Simulation started at: 3:31:56 PM, Tue Jan 14, 2020, ended at: 3:32:12 PM, Tue Jan 14, 2020, with elapsed time (wall clock): 16.1 s.
spectre completes with 0 errors, 25 warnings, and 2 notices.
