Spectre (R) Circuit Simulator
Version 16.1.0.479.isr9 32bit -- 7 Sep 2017
Simulating `input.scs' on eeapps01.seas.ucla.edu at 12:26:43 AM, Fri Feb 28, 2020 (process id: 57202).
H = mpsImport( "spectre" "ipi" "v0.0" ?session "spectre2_190461_5" )
H->sclSetResultDir( "../psf" )
H->sclRun( "all" )
sclCkt0x10ab7e18 = H->sclGetCircuit(  "" )
sclParam0x10ab7e18 = H->sclGetParameter( sclCkt0x10ab7e18 "V_Cin" )
H->sclSetAttribute( sclParam0x10ab7e18 "value" "0.25" )
H->sclSetResultDir( "../psf" )
H->sclRun( "all" )
sclCkt0x10ab7e18 = H->sclGetCircuit(  "" )
sclParam0x10ab7e19 = H->sclGetParameter( sclCkt0x10ab7e18 "V_Cin" )
H->sclSetAttribute( sclParam0x10ab7e19 "value" "0.5" )
H->sclSetResultDir( "../psf" )
H->sclRun( "all" )
sclCkt0x10ab7e18 = H->sclGetCircuit(  "" )
sclParam0x10ab7e1a = H->sclGetParameter( sclCkt0x10ab7e18 "V_Cin" )
H->sclSetAttribute( sclParam0x10ab7e1a "value" "0.75" )
H->sclSetResultDir( "../psf" )
H->sclRun( "all" )
sclCkt0x10ab7e18 = H->sclGetCircuit(  "" )
sclParam0x10ab7e1b = H->sclGetParameter( sclCkt0x10ab7e18 "V_Cin" )
H->sclSetAttribute( sclParam0x10ab7e1b "value" "1" )
H->sclSetResultDir( "../psf" )
H->sclRun( "all" )
sclCkt0x10ab7e18 = H->sclGetCircuit(  "" )
sclParam0x10ab7e1c = H->sclGetParameter( sclCkt0x10ab7e18 "V_B" )
H->sclSetAttribute( sclParam0x10ab7e1c "value" "0.25" )
sclCkt0x10ab7e18 = H->sclGetCircuit(  "" )
sclParam0x10ab7e1d = H->sclGetParameter( sclCkt0x10ab7e18 "V_Cin" )
H->sclSetAttribute( sclParam0x10ab7e1d "value" "0" )
H->sclSetResultDir( "../psf" )
H->sclRun( "all" )
sclCkt0x10ab7e18 = H->sclGetCircuit(  "" )
sclParam0x10ab7e1e = H->sclGetParameter( sclCkt0x10ab7e18 "V_Cin" )
H->sclSetAttribute( sclParam0x10ab7e1e "value" "0.25" )
H->sclSetResultDir( "../psf" )
H->sclRun( "all" )
sclCkt0x10ab7e18 = H->sclGetCircuit(  "" )
sclParam0x10ab7e1f = H->sclGetParameter( sclCkt0x10ab7e18 "V_Cin" )
H->sclSetAttribute( sclParam0x10ab7e1f "value" "0.5" )
H->sclSetResultDir( "../psf" )
H->sclRun( "all" )
sclCkt0x10ab7e18 = H->sclGetCircuit(  "" )
sclParam0x10ab7e20 = H->sclGetParameter( sclCkt0x10ab7e18 "V_Cin" )
H->sclSetAttribute( sclParam0x10ab7e20 "value" "0.75" )
H->sclSetResultDir( "../psf" )
H->sclRun( "all" )
sclCkt0x10ab7e18 = H->sclGetCircuit(  "" )
sclParam0x10ab7e21 = H->sclGetParameter( sclCkt0x10ab7e18 "V_Cin" )
H->sclSetAttribute( sclParam0x10ab7e21 "value" "1" )
H->sclSetResultDir( "../psf" )
H->sclRun( "all" )
sclCkt0x10ab7e18 = H->sclGetCircuit(  "" )
sclParam0x10ab7e22 = H->sclGetParameter( sclCkt0x10ab7e18 "V_B" )
H->sclSetAttribute( sclParam0x10ab7e22 "value" "0.5" )
sclCkt0x10ab7e18 = H->sclGetCircuit(  "" )
sclParam0x10ab7e23 = H->sclGetParameter( sclCkt0x10ab7e18 "V_Cin" )
H->sclSetAttribute( sclParam0x10ab7e23 "value" "0" )
H->sclSetResultDir( "../psf" )
H->sclRun( "all" )
sclCkt0x10ab7e18 = H->sclGetCircuit(  "" )
sclParam0x10ab7e24 = H->sclGetParameter( sclCkt0x10ab7e18 "V_Cin" )
H->sclSetAttribute( sclParam0x10ab7e24 "value" "0.25" )
H->sclSetResultDir( "../psf" )
H->sclRun( "all" )
sclCkt0x10ab7e18 = H->sclGetCircuit(  "" )
sclParam0x10ab7e25 = H->sclGetParameter( sclCkt0x10ab7e18 "V_Cin" )
H->sclSetAttribute( sclParam0x10ab7e25 "value" "0.5" )
H->sclSetResultDir( "../psf" )
H->sclRun( "all" )
sclCkt0x10ab7e18 = H->sclGetCircuit(  "" )
sclParam0x10ab7e26 = H->sclGetParameter( sclCkt0x10ab7e18 "V_Cin" )
H->sclSetAttribute( sclParam0x10ab7e26 "value" "0.75" )
H->sclSetResultDir( "../psf" )
H->sclRun( "all" )
sclCkt0x10ab7e18 = H->sclGetCircuit(  "" )
sclParam0x10ab7e27 = H->sclGetParameter( sclCkt0x10ab7e18 "V_Cin" )
H->sclSetAttribute( sclParam0x10ab7e27 "value" "1" )
H->sclSetResultDir( "../psf" )
H->sclRun( "all" )
sclCkt0x10ab7e18 = H->sclGetCircuit(  "" )
sclParam0x10ab7e28 = H->sclGetParameter( sclCkt0x10ab7e18 "V_B" )
H->sclSetAttribute( sclParam0x10ab7e28 "value" "0.75" )
sclCkt0x10ab7e18 = H->sclGetCircuit(  "" )
sclParam0x10ab7e29 = H->sclGetParameter( sclCkt0x10ab7e18 "V_Cin" )
H->sclSetAttribute( sclParam0x10ab7e29 "value" "0" )
H->sclSetResultDir( "../psf" )
H->sclRun( "all" )
sclCkt0x10ab7e18 = H->sclGetCircuit(  "" )
sclParam0x10ab7e2a = H->sclGetParameter( sclCkt0x10ab7e18 "V_Cin" )
H->sclSetAttribute( sclParam0x10ab7e2a "value" "0.25" )
H->sclSetResultDir( "../psf" )
H->sclRun( "all" )
sclCkt0x10ab7e18 = H->sclGetCircuit(  "" )
sclParam0x10ab7e2b = H->sclGetParameter( sclCkt0x10ab7e18 "V_Cin" )
H->sclSetAttribute( sclParam0x10ab7e2b "value" "0.5" )
H->sclSetResultDir( "../psf" )
H->sclRun( "all" )
sclCkt0x10ab7e18 = H->sclGetCircuit(  "" )
sclParam0x10ab7e2c = H->sclGetParameter( sclCkt0x10ab7e18 "V_Cin" )
H->sclSetAttribute( sclParam0x10ab7e2c "value" "0.75" )
H->sclSetResultDir( "../psf" )
H->sclRun( "all" )
sclCkt0x10ab7e18 = H->sclGetCircuit(  "" )
sclParam0x10ab7e2d = H->sclGetParameter( sclCkt0x10ab7e18 "V_Cin" )
H->sclSetAttribute( sclParam0x10ab7e2d "value" "1" )
H->sclSetResultDir( "../psf" )
H->sclRun( "all" )
sclCkt0x10ab7e18 = H->sclGetCircuit(  "" )
sclParam0x10ab7e2e = H->sclGetParameter( sclCkt0x10ab7e18 "V_B" )
H->sclSetAttribute( sclParam0x10ab7e2e "value" "1" )
sclCkt0x10ab7e18 = H->sclGetCircuit(  "" )
sclParam0x10ab7e2f = H->sclGetParameter( sclCkt0x10ab7e18 "V_Cin" )
H->sclSetAttribute( sclParam0x10ab7e2f "value" "0" )
H->sclSetResultDir( "../psf" )
H->sclRun( "all" )
sclCkt0x10ab7e18 = H->sclGetCircuit(  "" )
sclParam0x10ab7e30 = H->sclGetParameter( sclCkt0x10ab7e18 "V_Cin" )
H->sclSetAttribute( sclParam0x10ab7e30 "value" "0.25" )
H->sclSetResultDir( "../psf" )
H->sclRun( "all" )
sclCkt0x10ab7e18 = H->sclGetCircuit(  "" )
sclParam0x10ab7e31 = H->sclGetParameter( sclCkt0x10ab7e18 "V_Cin" )
H->sclSetAttribute( sclParam0x10ab7e31 "value" "0.5" )
H->sclSetResultDir( "../psf" )
H->sclRun( "all" )
sclCkt0x10ab7e18 = H->sclGetCircuit(  "" )
sclParam0x10ab7e32 = H->sclGetParameter( sclCkt0x10ab7e18 "V_Cin" )
H->sclSetAttribute( sclParam0x10ab7e32 "value" "0.75" )
H->sclSetResultDir( "../psf" )
H->sclRun( "all" )
sclCkt0x10ab7e18 = H->sclGetCircuit(  "" )
sclParam0x10ab7e33 = H->sclGetParameter( sclCkt0x10ab7e18 "V_Cin" )
H->sclSetAttribute( sclParam0x10ab7e33 "value" "1" )
H->sclSetResultDir( "../psf" )
H->sclRun( "all" )
sclCkt0x10ab7e18 = H->sclGetCircuit(  "" )
sclParam0x10ab7e34 = H->sclGetParameter( sclCkt0x10ab7e18 "V_A" )
H->sclSetAttribute( sclParam0x10ab7e34 "value" "0.25" )
sclCkt0x10ab7e18 = H->sclGetCircuit(  "" )
sclParam0x10ab7e35 = H->sclGetParameter( sclCkt0x10ab7e18 "V_B" )
H->sclSetAttribute( sclParam0x10ab7e35 "value" "0" )
sclCkt0x10ab7e18 = H->sclGetCircuit(  "" )
sclParam0x10ab7e36 = H->sclGetParameter( sclCkt0x10ab7e18 "V_Cin" )
H->sclSetAttribute( sclParam0x10ab7e36 "value" "0" )
H->sclSetResultDir( "../psf" )
H->sclRun( "all" )
sclCkt0x10ab7e18 = H->sclGetCircuit(  "" )
sclParam0x10ab7e37 = H->sclGetParameter( sclCkt0x10ab7e18 "V_Cin" )
H->sclSetAttribute( sclParam0x10ab7e37 "value" "0.25" )
H->sclSetResultDir( "../psf" )
H->sclRun( "all" )
sclCkt0x10ab7e18 = H->sclGetCircuit(  "" )
sclParam0x10ab7e38 = H->sclGetParameter( sclCkt0x10ab7e18 "V_Cin" )
H->sclSetAttribute( sclParam0x10ab7e38 "value" "0.5" )
H->sclSetResultDir( "../psf" )
H->sclRun( "all" )
sclCkt0x10ab7e18 = H->sclGetCircuit(  "" )
sclParam0x10ab7e39 = H->sclGetParameter( sclCkt0x10ab7e18 "V_Cin" )
H->sclSetAttribute( sclParam0x10ab7e39 "value" "0.75" )
H->sclSetResultDir( "../psf" )
H->sclRun( "all" )
sclCkt0x10ab7e18 = H->sclGetCircuit(  "" )
sclParam0x10ab7e3a = H->sclGetParameter( sclCkt0x10ab7e18 "V_Cin" )
H->sclSetAttribute( sclParam0x10ab7e3a "value" "1" )
H->sclSetResultDir( "../psf" )
H->sclRun( "all" )
sclCkt0x10ab7e18 = H->sclGetCircuit(  "" )
sclParam0x10ab7e3b = H->sclGetParameter( sclCkt0x10ab7e18 "V_B" )
H->sclSetAttribute( sclParam0x10ab7e3b "value" "0.25" )
sclCkt0x10ab7e18 = H->sclGetCircuit(  "" )
sclParam0x10ab7e3c = H->sclGetParameter( sclCkt0x10ab7e18 "V_Cin" )
H->sclSetAttribute( sclParam0x10ab7e3c "value" "0" )
H->sclSetResultDir( "../psf" )
H->sclRun( "all" )
sclCkt0x10ab7e18 = H->sclGetCircuit(  "" )
sclParam0x10ab7e3d = H->sclGetParameter( sclCkt0x10ab7e18 "V_Cin" )
H->sclSetAttribute( sclParam0x10ab7e3d "value" "0.25" )
H->sclSetResultDir( "../psf" )
H->sclRun( "all" )
sclCkt0x10ab7e18 = H->sclGetCircuit(  "" )
sclParam0x10ab7e3e = H->sclGetParameter( sclCkt0x10ab7e18 "V_Cin" )
H->sclSetAttribute( sclParam0x10ab7e3e "value" "0.5" )
H->sclSetResultDir( "../psf" )
H->sclRun( "all" )
sclCkt0x10ab7e18 = H->sclGetCircuit(  "" )
sclParam0x10ab7e3f = H->sclGetParameter( sclCkt0x10ab7e18 "V_Cin" )
H->sclSetAttribute( sclParam0x10ab7e3f "value" "0.75" )
H->sclSetResultDir( "../psf" )
H->sclRun( "all" )
sclCkt0x10ab7e18 = H->sclGetCircuit(  "" )
sclParam0x10ab7e40 = H->sclGetParameter( sclCkt0x10ab7e18 "V_Cin" )
H->sclSetAttribute( sclParam0x10ab7e40 "value" "1" )
H->sclSetResultDir( "../psf" )
H->sclRun( "all" )
sclCkt0x10ab7e18 = H->sclGetCircuit(  "" )
sclParam0x10ab7e41 = H->sclGetParameter( sclCkt0x10ab7e18 "V_B" )
H->sclSetAttribute( sclParam0x10ab7e41 "value" "0.5" )
sclCkt0x10ab7e18 = H->sclGetCircuit(  "" )
sclParam0x10ab7e42 = H->sclGetParameter( sclCkt0x10ab7e18 "V_Cin" )
H->sclSetAttribute( sclParam0x10ab7e42 "value" "0" )
H->sclSetResultDir( "../psf" )
H->sclRun( "all" )
sclCkt0x10ab7e18 = H->sclGetCircuit(  "" )
sclParam0x10ab7e43 = H->sclGetParameter( sclCkt0x10ab7e18 "V_Cin" )
H->sclSetAttribute( sclParam0x10ab7e43 "value" "0.25" )
H->sclSetResultDir( "../psf" )
H->sclRun( "all" )
sclCkt0x10ab7e18 = H->sclGetCircuit(  "" )
sclParam0x10ab7e44 = H->sclGetParameter( sclCkt0x10ab7e18 "V_Cin" )
H->sclSetAttribute( sclParam0x10ab7e44 "value" "0.5" )
H->sclSetResultDir( "../psf" )
H->sclRun( "all" )
sclCkt0x10ab7e18 = H->sclGetCircuit(  "" )
sclParam0x10ab7e45 = H->sclGetParameter( sclCkt0x10ab7e18 "V_Cin" )
H->sclSetAttribute( sclParam0x10ab7e45 "value" "0.75" )
H->sclSetResultDir( "../psf" )
H->sclRun( "all" )
sclCkt0x10ab7e18 = H->sclGetCircuit(  "" )
sclParam0x10ab7e46 = H->sclGetParameter( sclCkt0x10ab7e18 "V_Cin" )
H->sclSetAttribute( sclParam0x10ab7e46 "value" "1" )
H->sclSetResultDir( "../psf" )
H->sclRun( "all" )
sclCkt0x10ab7e18 = H->sclGetCircuit(  "" )
sclParam0x10ab7e47 = H->sclGetParameter( sclCkt0x10ab7e18 "V_B" )
H->sclSetAttribute( sclParam0x10ab7e47 "value" "0.75" )
sclCkt0x10ab7e18 = H->sclGetCircuit(  "" )
sclParam0x10ab7e48 = H->sclGetParameter( sclCkt0x10ab7e18 "V_Cin" )
H->sclSetAttribute( sclParam0x10ab7e48 "value" "0" )
H->sclSetResultDir( "../psf" )
H->sclRun( "all" )
sclCkt0x10ab7e18 = H->sclGetCircuit(  "" )
sclParam0x10ab7e49 = H->sclGetParameter( sclCkt0x10ab7e18 "V_Cin" )
H->sclSetAttribute( sclParam0x10ab7e49 "value" "0.25" )
H->sclSetResultDir( "../psf" )
H->sclRun( "all" )
sclCkt0x10ab7e18 = H->sclGetCircuit(  "" )
sclParam0x10ab7e4a = H->sclGetParameter( sclCkt0x10ab7e18 "V_Cin" )
H->sclSetAttribute( sclParam0x10ab7e4a "value" "0.5" )
H->sclSetResultDir( "../psf" )
H->sclRun( "all" )
sclCkt0x10ab7e18 = H->sclGetCircuit(  "" )
sclParam0x10ab7e4b = H->sclGetParameter( sclCkt0x10ab7e18 "V_Cin" )
H->sclSetAttribute( sclParam0x10ab7e4b "value" "0.75" )
H->sclSetResultDir( "../psf" )
H->sclRun( "all" )
sclCkt0x10ab7e18 = H->sclGetCircuit(  "" )
sclParam0x10ab7e4c = H->sclGetParameter( sclCkt0x10ab7e18 "V_Cin" )
H->sclSetAttribute( sclParam0x10ab7e4c "value" "1" )
H->sclSetResultDir( "../psf" )
H->sclRun( "all" )
sclCkt0x10ab7e18 = H->sclGetCircuit(  "" )
sclParam0x10ab7e4d = H->sclGetParameter( sclCkt0x10ab7e18 "V_B" )
H->sclSetAttribute( sclParam0x10ab7e4d "value" "1" )
sclCkt0x10ab7e18 = H->sclGetCircuit(  "" )
sclParam0x10ab7e4e = H->sclGetParameter( sclCkt0x10ab7e18 "V_Cin" )
H->sclSetAttribute( sclParam0x10ab7e4e "value" "0" )
H->sclSetResultDir( "../psf" )
H->sclRun( "all" )
sclCkt0x10ab7e18 = H->sclGetCircuit(  "" )
sclParam0x10ab7e4f = H->sclGetParameter( sclCkt0x10ab7e18 "V_Cin" )
H->sclSetAttribute( sclParam0x10ab7e4f "value" "0.25" )
H->sclSetResultDir( "../psf" )
H->sclRun( "all" )
sclCkt0x10ab7e18 = H->sclGetCircuit(  "" )
sclParam0x10ab7e50 = H->sclGetParameter( sclCkt0x10ab7e18 "V_Cin" )
H->sclSetAttribute( sclParam0x10ab7e50 "value" "0.5" )
H->sclSetResultDir( "../psf" )
H->sclRun( "all" )
sclCkt0x10ab7e18 = H->sclGetCircuit(  "" )
sclParam0x10ab7e51 = H->sclGetParameter( sclCkt0x10ab7e18 "V_Cin" )
H->sclSetAttribute( sclParam0x10ab7e51 "value" "0.75" )
H->sclSetResultDir( "../psf" )
H->sclRun( "all" )
sclCkt0x10ab7e18 = H->sclGetCircuit(  "" )
sclParam0x10ab7e52 = H->sclGetParameter( sclCkt0x10ab7e18 "V_Cin" )
H->sclSetAttribute( sclParam0x10ab7e52 "value" "1" )
H->sclSetResultDir( "../psf" )
H->sclRun( "all" )
sclCkt0x10ab7e18 = H->sclGetCircuit(  "" )
sclParam0x10ab7e53 = H->sclGetParameter( sclCkt0x10ab7e18 "V_A" )
H->sclSetAttribute( sclParam0x10ab7e53 "value" "0.5" )
sclCkt0x10ab7e18 = H->sclGetCircuit(  "" )
sclParam0x10ab7e54 = H->sclGetParameter( sclCkt0x10ab7e18 "V_B" )
H->sclSetAttribute( sclParam0x10ab7e54 "value" "0" )
sclCkt0x10ab7e18 = H->sclGetCircuit(  "" )
sclParam0x10ab7e55 = H->sclGetParameter( sclCkt0x10ab7e18 "V_Cin" )
H->sclSetAttribute( sclParam0x10ab7e55 "value" "0" )
H->sclSetResultDir( "../psf" )
H->sclRun( "all" )
sclCkt0x10ab7e18 = H->sclGetCircuit(  "" )
sclParam0x10ab7e56 = H->sclGetParameter( sclCkt0x10ab7e18 "V_Cin" )
H->sclSetAttribute( sclParam0x10ab7e56 "value" "0.25" )
H->sclSetResultDir( "../psf" )
H->sclRun( "all" )
sclCkt0x10ab7e18 = H->sclGetCircuit(  "" )
sclParam0x10ab7e57 = H->sclGetParameter( sclCkt0x10ab7e18 "V_Cin" )
H->sclSetAttribute( sclParam0x10ab7e57 "value" "0.5" )
H->sclSetResultDir( "../psf" )
H->sclRun( "all" )
sclCkt0x10ab7e18 = H->sclGetCircuit(  "" )
sclParam0x10ab7e58 = H->sclGetParameter( sclCkt0x10ab7e18 "V_Cin" )
H->sclSetAttribute( sclParam0x10ab7e58 "value" "0.75" )
H->sclSetResultDir( "../psf" )
H->sclRun( "all" )
sclCkt0x10ab7e18 = H->sclGetCircuit(  "" )
sclParam0x10ab7e59 = H->sclGetParameter( sclCkt0x10ab7e18 "V_Cin" )
H->sclSetAttribute( sclParam0x10ab7e59 "value" "1" )
H->sclSetResultDir( "../psf" )
H->sclRun( "all" )
sclCkt0x10ab7e18 = H->sclGetCircuit(  "" )
sclParam0x10ab7e5a = H->sclGetParameter( sclCkt0x10ab7e18 "V_B" )
H->sclSetAttribute( sclParam0x10ab7e5a "value" "0.25" )
sclCkt0x10ab7e18 = H->sclGetCircuit(  "" )
sclParam0x10ab7e5b = H->sclGetParameter( sclCkt0x10ab7e18 "V_Cin" )
H->sclSetAttribute( sclParam0x10ab7e5b "value" "0" )
H->sclSetResultDir( "../psf" )
H->sclRun( "all" )
sclCkt0x10ab7e18 = H->sclGetCircuit(  "" )
sclParam0x10ab7e5c = H->sclGetParameter( sclCkt0x10ab7e18 "V_Cin" )
H->sclSetAttribute( sclParam0x10ab7e5c "value" "0.25" )
H->sclSetResultDir( "../psf" )
H->sclRun( "all" )
sclCkt0x10ab7e18 = H->sclGetCircuit(  "" )
sclParam0x10ab7e5d = H->sclGetParameter( sclCkt0x10ab7e18 "V_Cin" )
H->sclSetAttribute( sclParam0x10ab7e5d "value" "0.5" )
H->sclSetResultDir( "../psf" )
H->sclRun( "all" )
sclCkt0x10ab7e18 = H->sclGetCircuit(  "" )
sclParam0x10ab7e5e = H->sclGetParameter( sclCkt0x10ab7e18 "V_Cin" )
H->sclSetAttribute( sclParam0x10ab7e5e "value" "0.75" )
H->sclSetResultDir( "../psf" )
H->sclRun( "all" )
sclCkt0x10ab7e18 = H->sclGetCircuit(  "" )
sclParam0x10ab7e5f = H->sclGetParameter( sclCkt0x10ab7e18 "V_Cin" )
H->sclSetAttribute( sclParam0x10ab7e5f "value" "1" )
H->sclSetResultDir( "../psf" )
H->sclRun( "all" )
sclCkt0x10ab7e18 = H->sclGetCircuit(  "" )
sclParam0x10ab7e60 = H->sclGetParameter( sclCkt0x10ab7e18 "V_B" )
H->sclSetAttribute( sclParam0x10ab7e60 "value" "0.5" )
sclCkt0x10ab7e18 = H->sclGetCircuit(  "" )
sclParam0x10ab7e61 = H->sclGetParameter( sclCkt0x10ab7e18 "V_Cin" )
H->sclSetAttribute( sclParam0x10ab7e61 "value" "0" )
H->sclSetResultDir( "../psf" )
H->sclRun( "all" )
sclCkt0x10ab7e18 = H->sclGetCircuit(  "" )
sclParam0x10ab7e62 = H->sclGetParameter( sclCkt0x10ab7e18 "V_Cin" )
H->sclSetAttribute( sclParam0x10ab7e62 "value" "0.25" )
H->sclSetResultDir( "../psf" )
H->sclRun( "all" )
sclCkt0x10ab7e18 = H->sclGetCircuit(  "" )
sclParam0x10ab7e63 = H->sclGetParameter( sclCkt0x10ab7e18 "V_Cin" )
H->sclSetAttribute( sclParam0x10ab7e63 "value" "0.5" )
H->sclSetResultDir( "../psf" )
H->sclRun( "all" )
sclCkt0x10ab7e18 = H->sclGetCircuit(  "" )
sclParam0x10ab7e64 = H->sclGetParameter( sclCkt0x10ab7e18 "V_Cin" )
H->sclSetAttribute( sclParam0x10ab7e64 "value" "0.75" )
H->sclSetResultDir( "../psf" )
H->sclRun( "all" )
sclCkt0x10ab7e18 = H->sclGetCircuit(  "" )
sclParam0x10ab7e65 = H->sclGetParameter( sclCkt0x10ab7e18 "V_Cin" )
H->sclSetAttribute( sclParam0x10ab7e65 "value" "1" )
H->sclSetResultDir( "../psf" )
H->sclRun( "all" )
sclCkt0x10ab7e18 = H->sclGetCircuit(  "" )
sclParam0x10ab7e66 = H->sclGetParameter( sclCkt0x10ab7e18 "V_B" )
H->sclSetAttribute( sclParam0x10ab7e66 "value" "0.75" )
sclCkt0x10ab7e18 = H->sclGetCircuit(  "" )
sclParam0x10ab7e67 = H->sclGetParameter( sclCkt0x10ab7e18 "V_Cin" )
H->sclSetAttribute( sclParam0x10ab7e67 "value" "0" )
H->sclSetResultDir( "../psf" )
H->sclRun( "all" )
sclCkt0x10ab7e18 = H->sclGetCircuit(  "" )
sclParam0x10ab7e68 = H->sclGetParameter( sclCkt0x10ab7e18 "V_Cin" )
H->sclSetAttribute( sclParam0x10ab7e68 "value" "0.25" )
H->sclSetResultDir( "../psf" )
H->sclRun( "all" )
sclCkt0x10ab7e18 = H->sclGetCircuit(  "" )
sclParam0x10ab7e69 = H->sclGetParameter( sclCkt0x10ab7e18 "V_Cin" )
H->sclSetAttribute( sclParam0x10ab7e69 "value" "0.5" )
H->sclSetResultDir( "../psf" )
H->sclRun( "all" )
sclCkt0x10ab7e18 = H->sclGetCircuit(  "" )
sclParam0x10ab7e6a = H->sclGetParameter( sclCkt0x10ab7e18 "V_Cin" )
H->sclSetAttribute( sclParam0x10ab7e6a "value" "0.75" )
H->sclSetResultDir( "../psf" )
H->sclRun( "all" )
sclCkt0x10ab7e18 = H->sclGetCircuit(  "" )
sclParam0x10ab7e6b = H->sclGetParameter( sclCkt0x10ab7e18 "V_Cin" )
H->sclSetAttribute( sclParam0x10ab7e6b "value" "1" )
H->sclSetResultDir( "../psf" )
H->sclRun( "all" )
sclCkt0x10ab7e18 = H->sclGetCircuit(  "" )
sclParam0x10ab7e6c = H->sclGetParameter( sclCkt0x10ab7e18 "V_B" )
H->sclSetAttribute( sclParam0x10ab7e6c "value" "1" )
sclCkt0x10ab7e18 = H->sclGetCircuit(  "" )
sclParam0x10ab7e6d = H->sclGetParameter( sclCkt0x10ab7e18 "V_Cin" )
H->sclSetAttribute( sclParam0x10ab7e6d "value" "0" )
H->sclSetResultDir( "../psf" )
H->sclRun( "all" )
sclCkt0x10ab7e18 = H->sclGetCircuit(  "" )
sclParam0x10ab7e6e = H->sclGetParameter( sclCkt0x10ab7e18 "V_Cin" )
H->sclSetAttribute( sclParam0x10ab7e6e "value" "0.25" )
H->sclSetResultDir( "../psf" )
H->sclRun( "all" )
sclCkt0x10ab7e18 = H->sclGetCircuit(  "" )
sclParam0x10ab7e6f = H->sclGetParameter( sclCkt0x10ab7e18 "V_Cin" )
H->sclSetAttribute( sclParam0x10ab7e6f "value" "0.5" )
H->sclSetResultDir( "../psf" )
H->sclRun( "all" )
sclCkt0x10ab7e18 = H->sclGetCircuit(  "" )
sclParam0x10ab7e70 = H->sclGetParameter( sclCkt0x10ab7e18 "V_Cin" )
H->sclSetAttribute( sclParam0x10ab7e70 "value" "0.75" )
H->sclSetResultDir( "../psf" )
H->sclRun( "all" )
sclCkt0x10ab7e18 = H->sclGetCircuit(  "" )
sclParam0x10ab7e71 = H->sclGetParameter( sclCkt0x10ab7e18 "V_Cin" )
H->sclSetAttribute( sclParam0x10ab7e71 "value" "1" )
H->sclSetResultDir( "../psf" )
H->sclRun( "all" )
sclCkt0x10ab7e18 = H->sclGetCircuit(  "" )
sclParam0x10ab7e72 = H->sclGetParameter( sclCkt0x10ab7e18 "V_A" )
H->sclSetAttribute( sclParam0x10ab7e72 "value" "0.75" )
sclCkt0x10ab7e18 = H->sclGetCircuit(  "" )
sclParam0x10ab7e73 = H->sclGetParameter( sclCkt0x10ab7e18 "V_B" )
H->sclSetAttribute( sclParam0x10ab7e73 "value" "0" )
sclCkt0x10ab7e18 = H->sclGetCircuit(  "" )
sclParam0x10ab7e74 = H->sclGetParameter( sclCkt0x10ab7e18 "V_Cin" )
H->sclSetAttribute( sclParam0x10ab7e74 "value" "0" )
H->sclSetResultDir( "../psf" )
H->sclRun( "all" )
sclCkt0x10ab7e18 = H->sclGetCircuit(  "" )
sclParam0x10ab7e75 = H->sclGetParameter( sclCkt0x10ab7e18 "V_Cin" )
H->sclSetAttribute( sclParam0x10ab7e75 "value" "0.25" )
H->sclSetResultDir( "../psf" )
H->sclRun( "all" )
sclCkt0x10ab7e18 = H->sclGetCircuit(  "" )
sclParam0x10ab7e76 = H->sclGetParameter( sclCkt0x10ab7e18 "V_Cin" )
H->sclSetAttribute( sclParam0x10ab7e76 "value" "0.5" )
H->sclSetResultDir( "../psf" )
H->sclRun( "all" )
sclCkt0x10ab7e18 = H->sclGetCircuit(  "" )
sclParam0x10ab7e77 = H->sclGetParameter( sclCkt0x10ab7e18 "V_Cin" )
H->sclSetAttribute( sclParam0x10ab7e77 "value" "0.75" )
H->sclSetResultDir( "../psf" )
H->sclRun( "all" )
sclCkt0x10ab7e18 = H->sclGetCircuit(  "" )
sclParam0x10ab7e78 = H->sclGetParameter( sclCkt0x10ab7e18 "V_Cin" )
H->sclSetAttribute( sclParam0x10ab7e78 "value" "1" )
H->sclSetResultDir( "../psf" )
H->sclRun( "all" )
sclCkt0x10ab7e18 = H->sclGetCircuit(  "" )
sclParam0x10ab7e79 = H->sclGetParameter( sclCkt0x10ab7e18 "V_B" )
H->sclSetAttribute( sclParam0x10ab7e79 "value" "0.25" )
sclCkt0x10ab7e18 = H->sclGetCircuit(  "" )
sclParam0x10ab7e7a = H->sclGetParameter( sclCkt0x10ab7e18 "V_Cin" )
H->sclSetAttribute( sclParam0x10ab7e7a "value" "0" )
H->sclSetResultDir( "../psf" )
H->sclRun( "all" )
sclCkt0x10ab7e18 = H->sclGetCircuit(  "" )
sclParam0x10ab7e7b = H->sclGetParameter( sclCkt0x10ab7e18 "V_Cin" )
H->sclSetAttribute( sclParam0x10ab7e7b "value" "0.25" )
H->sclSetResultDir( "../psf" )
H->sclRun( "all" )
sclCkt0x10ab7e18 = H->sclGetCircuit(  "" )
sclParam0x10ab7e7c = H->sclGetParameter( sclCkt0x10ab7e18 "V_Cin" )
H->sclSetAttribute( sclParam0x10ab7e7c "value" "0.5" )
H->sclSetResultDir( "../psf" )
H->sclRun( "all" )
sclCkt0x10ab7e18 = H->sclGetCircuit(  "" )
sclParam0x10ab7e7d = H->sclGetParameter( sclCkt0x10ab7e18 "V_Cin" )
H->sclSetAttribute( sclParam0x10ab7e7d "value" "0.75" )
H->sclSetResultDir( "../psf" )
H->sclRun( "all" )
sclCkt0x10ab7e18 = H->sclGetCircuit(  "" )
sclParam0x10ab7e7e = H->sclGetParameter( sclCkt0x10ab7e18 "V_Cin" )
H->sclSetAttribute( sclParam0x10ab7e7e "value" "1" )
H->sclSetResultDir( "../psf" )
H->sclRun( "all" )
sclCkt0x10ab7e18 = H->sclGetCircuit(  "" )
sclParam0x10ab7e7f = H->sclGetParameter( sclCkt0x10ab7e18 "V_B" )
H->sclSetAttribute( sclParam0x10ab7e7f "value" "0.5" )
sclCkt0x10ab7e18 = H->sclGetCircuit(  "" )
sclParam0x10ab7e80 = H->sclGetParameter( sclCkt0x10ab7e18 "V_Cin" )
H->sclSetAttribute( sclParam0x10ab7e80 "value" "0" )
H->sclSetResultDir( "../psf" )
H->sclRun( "all" )
sclCkt0x10ab7e18 = H->sclGetCircuit(  "" )
sclParam0x10ab7e81 = H->sclGetParameter( sclCkt0x10ab7e18 "V_Cin" )
H->sclSetAttribute( sclParam0x10ab7e81 "value" "0.25" )
H->sclSetResultDir( "../psf" )
H->sclRun( "all" )
sclCkt0x10ab7e18 = H->sclGetCircuit(  "" )
sclParam0x10ab7e82 = H->sclGetParameter( sclCkt0x10ab7e18 "V_Cin" )
H->sclSetAttribute( sclParam0x10ab7e82 "value" "0.5" )
H->sclSetResultDir( "../psf" )
H->sclRun( "all" )
sclCkt0x10ab7e18 = H->sclGetCircuit(  "" )
sclParam0x10ab7e83 = H->sclGetParameter( sclCkt0x10ab7e18 "V_Cin" )
H->sclSetAttribute( sclParam0x10ab7e83 "value" "0.75" )
H->sclSetResultDir( "../psf" )
H->sclRun( "all" )
sclCkt0x10ab7e18 = H->sclGetCircuit(  "" )
sclParam0x10ab7e84 = H->sclGetParameter( sclCkt0x10ab7e18 "V_Cin" )
H->sclSetAttribute( sclParam0x10ab7e84 "value" "1" )
H->sclSetResultDir( "../psf" )
H->sclRun( "all" )
sclCkt0x10ab7e18 = H->sclGetCircuit(  "" )
sclParam0x10ab7e85 = H->sclGetParameter( sclCkt0x10ab7e18 "V_B" )
H->sclSetAttribute( sclParam0x10ab7e85 "value" "0.75" )
sclCkt0x10ab7e18 = H->sclGetCircuit(  "" )
sclParam0x10ab7e86 = H->sclGetParameter( sclCkt0x10ab7e18 "V_Cin" )
H->sclSetAttribute( sclParam0x10ab7e86 "value" "0" )
H->sclSetResultDir( "../psf" )
H->sclRun( "all" )
sclCkt0x10ab7e18 = H->sclGetCircuit(  "" )
sclParam0x10ab7e87 = H->sclGetParameter( sclCkt0x10ab7e18 "V_Cin" )
H->sclSetAttribute( sclParam0x10ab7e87 "value" "0.25" )
H->sclSetResultDir( "../psf" )
H->sclRun( "all" )
sclCkt0x10ab7e18 = H->sclGetCircuit(  "" )
sclParam0x10ab7e88 = H->sclGetParameter( sclCkt0x10ab7e18 "V_Cin" )
H->sclSetAttribute( sclParam0x10ab7e88 "value" "0.5" )
H->sclSetResultDir( "../psf" )
H->sclRun( "all" )
sclCkt0x10ab7e18 = H->sclGetCircuit(  "" )
sclParam0x10ab7e89 = H->sclGetParameter( sclCkt0x10ab7e18 "V_Cin" )
H->sclSetAttribute( sclParam0x10ab7e89 "value" "0.75" )
H->sclSetResultDir( "../psf" )
H->sclRun( "all" )
sclCkt0x10ab7e18 = H->sclGetCircuit(  "" )
sclParam0x10ab7e8a = H->sclGetParameter( sclCkt0x10ab7e18 "V_Cin" )
H->sclSetAttribute( sclParam0x10ab7e8a "value" "1" )
H->sclSetResultDir( "../psf" )
H->sclRun( "all" )
sclCkt0x10ab7e18 = H->sclGetCircuit(  "" )
sclParam0x10ab7e8b = H->sclGetParameter( sclCkt0x10ab7e18 "V_B" )
H->sclSetAttribute( sclParam0x10ab7e8b "value" "1" )
sclCkt0x10ab7e18 = H->sclGetCircuit(  "" )
sclParam0x10ab7e8c = H->sclGetParameter( sclCkt0x10ab7e18 "V_Cin" )
H->sclSetAttribute( sclParam0x10ab7e8c "value" "0" )
H->sclSetResultDir( "../psf" )
H->sclRun( "all" )
sclCkt0x10ab7e18 = H->sclGetCircuit(  "" )
sclParam0x10ab7e8d = H->sclGetParameter( sclCkt0x10ab7e18 "V_Cin" )
H->sclSetAttribute( sclParam0x10ab7e8d "value" "0.25" )
H->sclSetResultDir( "../psf" )
H->sclRun( "all" )
sclCkt0x10ab7e18 = H->sclGetCircuit(  "" )
sclParam0x10ab7e8e = H->sclGetParameter( sclCkt0x10ab7e18 "V_Cin" )
H->sclSetAttribute( sclParam0x10ab7e8e "value" "0.5" )
H->sclSetResultDir( "../psf" )
H->sclRun( "all" )
sclCkt0x10ab7e18 = H->sclGetCircuit(  "" )
sclParam0x10ab7e8f = H->sclGetParameter( sclCkt0x10ab7e18 "V_Cin" )
H->sclSetAttribute( sclParam0x10ab7e8f "value" "0.75" )
H->sclSetResultDir( "../psf" )
H->sclRun( "all" )
sclCkt0x10ab7e18 = H->sclGetCircuit(  "" )
sclParam0x10ab7e90 = H->sclGetParameter( sclCkt0x10ab7e18 "V_Cin" )
H->sclSetAttribute( sclParam0x10ab7e90 "value" "1" )
H->sclSetResultDir( "../psf" )
H->sclRun( "all" )
sclCkt0x10ab7e18 = H->sclGetCircuit(  "" )
sclParam0x10ab7e91 = H->sclGetParameter( sclCkt0x10ab7e18 "V_A" )
H->sclSetAttribute( sclParam0x10ab7e91 "value" "1" )
sclCkt0x10ab7e18 = H->sclGetCircuit(  "" )
sclParam0x10ab7e92 = H->sclGetParameter( sclCkt0x10ab7e18 "V_B" )
H->sclSetAttribute( sclParam0x10ab7e92 "value" "0" )
sclCkt0x10ab7e18 = H->sclGetCircuit(  "" )
sclParam0x10ab7e93 = H->sclGetParameter( sclCkt0x10ab7e18 "V_Cin" )
H->sclSetAttribute( sclParam0x10ab7e93 "value" "0" )
H->sclSetResultDir( "../psf" )
H->sclRun( "all" )
sclCkt0x10ab7e18 = H->sclGetCircuit(  "" )
sclParam0x10ab7e94 = H->sclGetParameter( sclCkt0x10ab7e18 "V_Cin" )
H->sclSetAttribute( sclParam0x10ab7e94 "value" "0.25" )
H->sclSetResultDir( "../psf" )
H->sclRun( "all" )
sclCkt0x10ab7e18 = H->sclGetCircuit(  "" )
sclParam0x10ab7e95 = H->sclGetParameter( sclCkt0x10ab7e18 "V_Cin" )
H->sclSetAttribute( sclParam0x10ab7e95 "value" "0.5" )
H->sclSetResultDir( "../psf" )
H->sclRun( "all" )
sclCkt0x10ab7e18 = H->sclGetCircuit(  "" )
sclParam0x10ab7e96 = H->sclGetParameter( sclCkt0x10ab7e18 "V_Cin" )
H->sclSetAttribute( sclParam0x10ab7e96 "value" "0.75" )
H->sclSetResultDir( "../psf" )
H->sclRun( "all" )
sclCkt0x10ab7e18 = H->sclGetCircuit(  "" )
sclParam0x10ab7e97 = H->sclGetParameter( sclCkt0x10ab7e18 "V_Cin" )
H->sclSetAttribute( sclParam0x10ab7e97 "value" "1" )
H->sclSetResultDir( "../psf" )
H->sclRun( "all" )
sclCkt0x10ab7e18 = H->sclGetCircuit(  "" )
sclParam0x10ab7e98 = H->sclGetParameter( sclCkt0x10ab7e18 "V_B" )
H->sclSetAttribute( sclParam0x10ab7e98 "value" "0.25" )
sclCkt0x10ab7e18 = H->sclGetCircuit(  "" )
sclParam0x10ab7e99 = H->sclGetParameter( sclCkt0x10ab7e18 "V_Cin" )
H->sclSetAttribute( sclParam0x10ab7e99 "value" "0" )
H->sclSetResultDir( "../psf" )
H->sclRun( "all" )
sclCkt0x10ab7e18 = H->sclGetCircuit(  "" )
sclParam0x10ab7e9a = H->sclGetParameter( sclCkt0x10ab7e18 "V_Cin" )
H->sclSetAttribute( sclParam0x10ab7e9a "value" "0.25" )
H->sclSetResultDir( "../psf" )
H->sclRun( "all" )
sclCkt0x10ab7e18 = H->sclGetCircuit(  "" )
sclParam0x10ab7e9b = H->sclGetParameter( sclCkt0x10ab7e18 "V_Cin" )
H->sclSetAttribute( sclParam0x10ab7e9b "value" "0.5" )
H->sclSetResultDir( "../psf" )
H->sclRun( "all" )
sclCkt0x10ab7e18 = H->sclGetCircuit(  "" )
sclParam0x10ab7e9c = H->sclGetParameter( sclCkt0x10ab7e18 "V_Cin" )
H->sclSetAttribute( sclParam0x10ab7e9c "value" "0.75" )
H->sclSetResultDir( "../psf" )
H->sclRun( "all" )
sclCkt0x10ab7e18 = H->sclGetCircuit(  "" )
sclParam0x10ab7e9d = H->sclGetParameter( sclCkt0x10ab7e18 "V_Cin" )
H->sclSetAttribute( sclParam0x10ab7e9d "value" "1" )
H->sclSetResultDir( "../psf" )
H->sclRun( "all" )
sclCkt0x10ab7e18 = H->sclGetCircuit(  "" )
sclParam0x10ab7e9e = H->sclGetParameter( sclCkt0x10ab7e18 "V_B" )
H->sclSetAttribute( sclParam0x10ab7e9e "value" "0.5" )
sclCkt0x10ab7e18 = H->sclGetCircuit(  "" )
sclParam0x10ab7e9f = H->sclGetParameter( sclCkt0x10ab7e18 "V_Cin" )
H->sclSetAttribute( sclParam0x10ab7e9f "value" "0" )
H->sclSetResultDir( "../psf" )
H->sclRun( "all" )
sclCkt0x10ab7e18 = H->sclGetCircuit(  "" )
sclParam0x10ab7ea0 = H->sclGetParameter( sclCkt0x10ab7e18 "V_Cin" )
H->sclSetAttribute( sclParam0x10ab7ea0 "value" "0.25" )
H->sclSetResultDir( "../psf" )
H->sclRun( "all" )
sclCkt0x10ab7e18 = H->sclGetCircuit(  "" )
sclParam0x10ab7ea1 = H->sclGetParameter( sclCkt0x10ab7e18 "V_Cin" )
H->sclSetAttribute( sclParam0x10ab7ea1 "value" "0.5" )
H->sclSetResultDir( "../psf" )
H->sclRun( "all" )
sclCkt0x10ab7e18 = H->sclGetCircuit(  "" )
sclParam0x10ab7ea2 = H->sclGetParameter( sclCkt0x10ab7e18 "V_Cin" )
H->sclSetAttribute( sclParam0x10ab7ea2 "value" "0.75" )
H->sclSetResultDir( "../psf" )
H->sclRun( "all" )
sclCkt0x10ab7e18 = H->sclGetCircuit(  "" )
sclParam0x10ab7ea3 = H->sclGetParameter( sclCkt0x10ab7e18 "V_Cin" )
H->sclSetAttribute( sclParam0x10ab7ea3 "value" "1" )
H->sclSetResultDir( "../psf" )
H->sclRun( "all" )
sclCkt0x10ab7e18 = H->sclGetCircuit(  "" )
sclParam0x10ab7ea4 = H->sclGetParameter( sclCkt0x10ab7e18 "V_B" )
H->sclSetAttribute( sclParam0x10ab7ea4 "value" "0.75" )
sclCkt0x10ab7e18 = H->sclGetCircuit(  "" )
sclParam0x10ab7ea5 = H->sclGetParameter( sclCkt0x10ab7e18 "V_Cin" )
H->sclSetAttribute( sclParam0x10ab7ea5 "value" "0" )
H->sclSetResultDir( "../psf" )
H->sclRun( "all" )
sclCkt0x10ab7e18 = H->sclGetCircuit(  "" )
sclParam0x10ab7ea6 = H->sclGetParameter( sclCkt0x10ab7e18 "V_Cin" )
H->sclSetAttribute( sclParam0x10ab7ea6 "value" "0.25" )
H->sclSetResultDir( "../psf" )
H->sclRun( "all" )
sclCkt0x10ab7e18 = H->sclGetCircuit(  "" )
sclParam0x10ab7ea7 = H->sclGetParameter( sclCkt0x10ab7e18 "V_Cin" )
H->sclSetAttribute( sclParam0x10ab7ea7 "value" "0.5" )
H->sclSetResultDir( "../psf" )
H->sclRun( "all" )
sclCkt0x10ab7e18 = H->sclGetCircuit(  "" )
sclParam0x10ab7ea8 = H->sclGetParameter( sclCkt0x10ab7e18 "V_Cin" )
H->sclSetAttribute( sclParam0x10ab7ea8 "value" "0.75" )
H->sclSetResultDir( "../psf" )
H->sclRun( "all" )
sclCkt0x10ab7e18 = H->sclGetCircuit(  "" )
sclParam0x10ab7ea9 = H->sclGetParameter( sclCkt0x10ab7e18 "V_Cin" )
H->sclSetAttribute( sclParam0x10ab7ea9 "value" "1" )
H->sclSetResultDir( "../psf" )
H->sclRun( "all" )
sclCkt0x10ab7e18 = H->sclGetCircuit(  "" )
sclParam0x10ab7eaa = H->sclGetParameter( sclCkt0x10ab7e18 "V_B" )
H->sclSetAttribute( sclParam0x10ab7eaa "value" "1" )
sclCkt0x10ab7e18 = H->sclGetCircuit(  "" )
sclParam0x10ab7eab = H->sclGetParameter( sclCkt0x10ab7e18 "V_Cin" )
H->sclSetAttribute( sclParam0x10ab7eab "value" "0" )
H->sclSetResultDir( "../psf" )
H->sclRun( "all" )
sclCkt0x10ab7e18 = H->sclGetCircuit(  "" )
sclParam0x10ab7eac = H->sclGetParameter( sclCkt0x10ab7e18 "V_Cin" )
H->sclSetAttribute( sclParam0x10ab7eac "value" "0.25" )
H->sclSetResultDir( "../psf" )
H->sclRun( "all" )
sclCkt0x10ab7e18 = H->sclGetCircuit(  "" )
sclParam0x10ab7ead = H->sclGetParameter( sclCkt0x10ab7e18 "V_Cin" )
H->sclSetAttribute( sclParam0x10ab7ead "value" "0.5" )
H->sclSetResultDir( "../psf" )
H->sclRun( "all" )
sclCkt0x10ab7e18 = H->sclGetCircuit(  "" )
sclParam0x10ab7eae = H->sclGetParameter( sclCkt0x10ab7e18 "V_Cin" )
H->sclSetAttribute( sclParam0x10ab7eae "value" "0.75" )
H->sclSetResultDir( "../psf" )
H->sclRun( "all" )
sclCkt0x10ab7e18 = H->sclGetCircuit(  "" )
sclParam0x10ab7eaf = H->sclGetParameter( sclCkt0x10ab7e18 "V_Cin" )
H->sclSetAttribute( sclParam0x10ab7eaf "value" "1" )
H->sclSetResultDir( "../psf" )
H->sclRun( "all" )
sclCkt0x10ab7e18 = H->sclGetCircuit(  "" )
H->sclQuit(  )
