
Spectre (R) Circuit Simulator
Version 16.1.0.479.isr9 32bit -- 7 Sep 2017
Copyright (C) 1989-2017 Cadence Design Systems, Inc. All rights reserved worldwide. Cadence and Spectre are registered trademarks of Cadence Design Systems, Inc. All others are the property of their respective holders.

Includes RSA BSAFE(R) Cryptographic or Security Protocol Software from RSA Security, Inc.

User: farooq   Host: eeapps01.seas.ucla.edu   HostID: 43A4F164   PID: 57202
Memory  available: 29.1522 GB  physical: 67.4342 GB
Linux   : Red Hat Enterprise Linux Server release 6.10 (Santiago)
CPU Type: Intel(R) Xeon(R) CPU E5-2630 v3 @ 2.40GHz
All processors running at 1200.0 MHz
        Socket: Processors (Hyperthreaded Processor)
        0:       0 ( 16 ),  2 ( 18 ),  4 ( 20 ),  6 ( 22 ),  8 ( 24 )
                10 ( 26 ), 12 ( 28 ), 14 ( 30 )
        1:       1 ( 17 ),  3 ( 19 ),  5 ( 21 ),  7 ( 23 ),  9 ( 25 )
                11 ( 27 ), 13 ( 29 ), 15 ( 31 )
        
System load averages (1min, 5min, 15min) : 0.7 %, 0.7 %, 0.6 %
Hyperthreading is enabled


Simulating `input.scs' on eeapps01.seas.ucla.edu at 12:26:43 AM, Fri Feb 28, 2020 (process id: 57202).
Current working directory: /w/home.15/ee/ugrad/farooq/ee115c/cadene-labs/simulation/hw3_#1_mirrorAdder_test/spectre/schematic/netlist
Command line:
    /w/apps3/Cadence/SPECTRE161/tools/bin/spectre input.scs +escchars  \
        +log ../psf/spectre.out +inter=mpsc  \
        +mpssession=spectre2_190461_5 -format psfxl -raw ../psf  \
        +lqtimeout 900 -maxw 5 -maxn 5
spectre pid = 57202

Loading /w/apps3/Cadence/SPECTRE161/tools.lnx86/cmi/lib/5.0/libinfineon_sh.so ...
Loading /w/apps3/Cadence/SPECTRE161/tools.lnx86/cmi/lib/5.0/libphilips_o_sh.so ...
Loading /w/apps3/Cadence/SPECTRE161/tools.lnx86/cmi/lib/5.0/libphilips_sh.so ...
Loading /w/apps3/Cadence/SPECTRE161/tools.lnx86/cmi/lib/5.0/libsparam_sh.so ...
Loading /w/apps3/Cadence/SPECTRE161/tools.lnx86/cmi/lib/5.0/libstmodels_sh.so ...
Reading file:  /w/home.15/ee/ugrad/farooq/ee115c/cadene-labs/simulation/hw3_#1_mirrorAdder_test/spectre/schematic/netlist/input.scs
Reading file:  /w/apps3/Cadence/SPECTRE161/tools.lnx86/spectre/etc/configs/mapsubckt.cfg
Reading file:  /w/apps3/Cadence/SPECTRE161/tools.lnx86/spectre/etc/configs/spectre.cfg
Reading link:  /usr/public.2
Reading file:  /w/apps2/public.2/ee115c/cadence-labs/gpdk090_v3.4/models/spectre/gpdk090.scs
Reading file:  /w/apps2/public.2/ee115c/cadence-labs/gpdk090_v3.4/models/spectre/gpdk090_mos.scs
Reading file:  /w/apps2/public.2/ee115c/cadence-labs/gpdk090_v3.4/models/spectre/gpdk090_mos_iso.scs
Reading file:  /w/apps2/public.2/ee115c/cadence-labs/gpdk090_v3.4/models/spectre/gpdk090_moscap.scs
Reading file:  /w/apps2/public.2/ee115c/cadence-labs/gpdk090_v3.4/models/spectre/gpdk090_resistor.scs
Reading file:  /w/apps2/public.2/ee115c/cadence-labs/gpdk090_v3.4/models/spectre/resd_va.va
Reading link:  /w/apps3/Cadence/SPECTRE161/tools.lnx86/spectre/etc/ahdl/constants.h
Reading file:  /w/apps3/Cadence/SPECTRE161/tools.lnx86/spectre/etc/ahdl/constants.vams
Reading link:  /w/apps3/Cadence/SPECTRE161/tools.lnx86/spectre/etc/ahdl/discipline.h
Reading file:  /w/apps3/Cadence/SPECTRE161/tools.lnx86/spectre/etc/ahdl/disciplines.vams
Reading file:  /w/apps2/public.2/ee115c/cadence-labs/gpdk090_v3.4/models/spectre/gpdk090_capacitor.scs
Reading file:  /w/apps2/public.2/ee115c/cadence-labs/gpdk090_v3.4/models/spectre/gpdk090_diode.scs
Reading file:  /w/apps2/public.2/ee115c/cadence-labs/gpdk090_v3.4/models/spectre/gpdk090_bipolar.scs
Time for NDB Parsing: CPU = 251.962 ms, elapsed = 380.338 ms.
Time accumulated: CPU = 285.956 ms, elapsed = 380.348 ms.
Peak resident memory used = 35.4 Mbytes.


The CPU load for active processors is :
        Spectre  0 (7.9 %)       1 (2.6 %)       2 (30.6 %)     16 (2.6 %)
                18 (5.3 %)      19 (10.5 %)     22 (2.6 %)      24 (33.3 %)
                26 (2.7 %)      
        Other   

Warning from spectre in `_sub2':`I0', during hierarchy flattening.
    WARNING (SFE-30): "input.scs" 15: I0.NM13: `simM' is not a valid parameter for an instance of `gpdk090_nmos1v'.  Ignored.
    WARNING (SFE-30): "input.scs" 17: I0.NM12: `simM' is not a valid parameter for an instance of `gpdk090_nmos1v'.  Ignored.
    WARNING (SFE-30): "input.scs" 19: I0.NM11: `simM' is not a valid parameter for an instance of `gpdk090_nmos1v'.  Ignored.
    WARNING (SFE-30): "input.scs" 21: I0.NM10: `simM' is not a valid parameter for an instance of `gpdk090_nmos1v'.  Ignored.
    WARNING (SFE-30): "input.scs" 23: I0.NM9: `simM' is not a valid parameter for an instance of `gpdk090_nmos1v'.  Ignored.
        Further occurrences of this warning will be suppressed.

Time for Elaboration: CPU = 24.996 ms, elapsed = 26.262 ms.
Time accumulated: CPU = 310.952 ms, elapsed = 406.862 ms.
Peak resident memory used = 39.4 Mbytes.


Time for EDB Visiting: CPU = 0 s, elapsed = 892.162 us.
Time accumulated: CPU = 311.951 ms, elapsed = 407.909 ms.
Peak resident memory used = 39.9 Mbytes.


Warning from spectre during initial setup.
    WARNING (CMI-2419): gpdk090_pmos1v: `imax' = 1 A is larger than `imelt' = 10 mA.  `imelt' is increased to `imax'.
    WARNING (CMI-2477): I0.PM0: `Rds' = 8.21053 uOhm is less than 0.001. Set to 0.
    WARNING (CMI-2477): I0.PM5: `Rds' = 17.3333 uOhm is less than 0.001. Set to 0.
    WARNING (CMI-2477): I0.PM10: `Rds' = 5.45455 uOhm is less than 0.001. Set to 0.
    WARNING (CMI-2477): I0.PM13: `Rds' = 10.0645 uOhm is less than 0.001. Set to 0.
    WARNING (CMI-2419): gpdk090_nmos1v: `imax' = 1 A is larger than `imelt' = 10 mA.  `imelt' is increased to `imax'.


Global user options:
             reltol = 0.001
            vabstol = 1e-06
            iabstol = 1e-12
               temp = 27
               gmin = 1e-12
             rforce = 1
           maxnotes = 5
           maxwarns = 5
             digits = 5
               cols = 80
             pivrel = 0.001
           sensfile = ../psf/sens.output
     checklimitdest = psf
               save = allpub
               tnom = 27
             scalem = 1
              scale = 1

Scoped user options:

Circuit inventory:
              nodes 18
            bsim3v3 28    
            vsource 5     

Analysis and control statement inventory:
               info 7     
               tran 1     

Output statements:
             .probe 0     
           .measure 0     
               save 1     


Warning from spectre during initial setup.
    WARNING (CMI-2477): I0.PM0: `Rds' = 8.21053 uOhm is less than 0.001. Set to 0.
        Further occurrences of this warning will be suppressed.
Notice from spectre.
    26 warnings suppressed.

Time for parsing: CPU = 3 ms, elapsed = 3.87597 ms.
Time accumulated: CPU = 315.951 ms, elapsed = 411.911 ms.
Peak resident memory used = 41.1 Mbytes.

~~~~~~~~~~~~~~~~~~~~~~
Pre-Simulation Summary
~~~~~~~~~~~~~~~~~~~~~~
~~~~~~~~~~~~~~~~~~~~~~
Entering remote command mode using MPSC service (spectre, ipi, v0.0, spectre2_190461_5, ).

Warning from spectre.
    WARNING (SPECTRE-16707): Only tran supports psfxl format, result of other analyses will be in psfbin format.


************************************************
Transient Analysis `tran': time = (0 s -> 10 ns)
************************************************

Opening the PSFXL file ../psf/tran.tran.tran ...
Important parameter values:
    start = 0 s
    outputstart = 0 s
    stop = 10 ns
    step = 10 ps
    maxstep = 200 ps
    ic = all
    useprevic = no
    skipdc = no
    reltol = 1e-03
    abstol(V) = 1 uV
    abstol(I) = 1 pA
    temp = 27 C
    tnom = 27 C
    tempeffects = all
    errpreset = moderate
    method = traponly
    lteratio = 3.5
    relref = sigglobal
    cmin = 0 F
    gmin = 1 pS


Output and IC/nodeset summary:
                 save   5       (current)
                 save   18      (voltage)

    tran: time = 310 ps       (3.1 %), step = 160 ps        (1.6 %)
    tran: time = 910 ps       (9.1 %), step = 200 ps          (2 %)
    tran: time = 1.31 ns     (13.1 %), step = 200 ps          (2 %)
    tran: time = 1.91 ns     (19.1 %), step = 200 ps          (2 %)
    tran: time = 2.31 ns     (23.1 %), step = 200 ps          (2 %)
    tran: time = 2.91 ns     (29.1 %), step = 200 ps          (2 %)
    tran: time = 3.31 ns     (33.1 %), step = 200 ps          (2 %)
    tran: time = 3.91 ns     (39.1 %), step = 200 ps          (2 %)
    tran: time = 4.31 ns     (43.1 %), step = 200 ps          (2 %)
    tran: time = 4.91 ns     (49.1 %), step = 200 ps          (2 %)
    tran: time = 5.31 ns     (53.1 %), step = 200 ps          (2 %)
    tran: time = 5.91 ns     (59.1 %), step = 200 ps          (2 %)
    tran: time = 6.31 ns     (63.1 %), step = 200 ps          (2 %)
    tran: time = 6.91 ns     (69.1 %), step = 200 ps          (2 %)
    tran: time = 7.31 ns     (73.1 %), step = 200 ps          (2 %)
    tran: time = 7.91 ns     (79.1 %), step = 200 ps          (2 %)
    tran: time = 8.31 ns     (83.1 %), step = 200 ps          (2 %)
    tran: time = 8.91 ns     (89.1 %), step = 200 ps          (2 %)
    tran: time = 9.31 ns     (93.1 %), step = 200 ps          (2 %)
    tran: time = 9.855 ns    (98.6 %), step = 145 ps       (1.45 %)
Number of accepted tran steps =             54

Maximum value achieved for any signal of each quantity: 
V: V(I0.NM13:int_d) = 0 V
I: I(V4:p) = 0 A
If your circuit contains signals of the same quantity that are vastly different in size (such as high voltage circuitry combined with low voltage control circuitry), you should consider specifying global option `bin_relref=yes'.

~~~~~~~~~~~~~~~~~~~~~~~~~~~~~~~~~
Post-Transient Simulation Summary
~~~~~~~~~~~~~~~~~~~~~~~~~~~~~~~~~
   -   To further speed up simulation, consider
          add ++aps on command line
~~~~~~~~~~~~~~~~~~~~~~~~~~~~~~~~~


During simulation, the CPU load for active processors is :
        Spectre  0 (8.7 %)       1 (2.2 %)       2 (37.0 %)      4 (2.2 %)
                16 (2.2 %)      18 (4.4 %)      19 (8.7 %)      20 (4.3 %)
                22 (2.2 %)      24 (35.6 %)     26 (2.2 %)      
        Other   
Initial condition solution time: CPU = 2 ms, elapsed = 2.31099 ms.
Intrinsic tran analysis time:    CPU = 20.997 ms, elapsed = 26.577 ms.
Total time required for tran analysis `tran': CPU = 25.996 ms, elapsed = 38.218 ms.
Time accumulated: CPU = 345.947 ms, elapsed = 471.311 ms.
Peak resident memory used = 43.4 Mbytes.

finalTimeOP: writing operating point information to rawfile.

Opening the PSF file ../psf/finalTimeOP.info ...
modelParameter: writing model parameter values to rawfile.

Opening the PSF file ../psf/modelParameter.info ...
element: writing instance parameter values to rawfile.

Opening the PSF file ../psf/element.info ...
outputParameter: writing output parameter values to rawfile.

Opening the PSF file ../psf/outputParameter.info ...
designParamVals: writing netlist parameters to rawfile.

Opening the PSFASCII file ../psf/designParamVals.info ...
primitives: writing primitives to rawfile.

Opening the PSFASCII file ../psf/primitives.info.primitives ...
subckts: writing subcircuits to rawfile.

Opening the PSFASCII file ../psf/subckts.info.subckts ...

Warning from spectre.
    WARNING (CMI-2419): gpdk090_pmos1v: `imax' = 1 A is larger than `imelt' = 10 mA.  `imelt' is increased to `imax'.
    WARNING (CMI-2477): I0.PM13: `Rds' = 10.0645 uOhm is less than 0.001. Set to 0.
    WARNING (CMI-2477): I0.PM12: `Rds' = 5.45455 uOhm is less than 0.001. Set to 0.
    WARNING (CMI-2477): I0.PM9: `Rds' = 8.21053 uOhm is less than 0.001. Set to 0.
    WARNING (CMI-2477): I0.PM5: `Rds' = 17.3333 uOhm is less than 0.001. Set to 0.
    WARNING (CMI-2419): gpdk090_nmos1v: `imax' = 1 A is larger than `imelt' = 10 mA.  `imelt' is increased to `imax'.
    WARNING (SPECTRE-16707): Only tran supports psfxl format, result of other analyses will be in psfbin format.


************************************************
Transient Analysis `tran': time = (0 s -> 10 ns)
************************************************

Opening the PSFXL file ../psf/tran.tran.tran ...
Important parameter values:
    start = 0 s
    outputstart = 0 s
    stop = 10 ns
    step = 10 ps
    maxstep = 200 ps
    ic = all
    useprevic = no
    skipdc = no
    reltol = 1e-03
    abstol(V) = 1 uV
    abstol(I) = 1 pA
    temp = 27 C
    tnom = 27 C
    tempeffects = all
    errpreset = moderate
    method = traponly
    lteratio = 3.5
    relref = sigglobal
    cmin = 0 F
    gmin = 1 pS


Output and IC/nodeset summary:
                 save   5       (current)
                 save   18      (voltage)

    tran: time = 310 ps       (3.1 %), step = 160 ps        (1.6 %)
    tran: time = 910 ps       (9.1 %), step = 200 ps          (2 %)
    tran: time = 1.31 ns     (13.1 %), step = 200 ps          (2 %)
    tran: time = 1.91 ns     (19.1 %), step = 200 ps          (2 %)
    tran: time = 2.31 ns     (23.1 %), step = 200 ps          (2 %)
    tran: time = 2.91 ns     (29.1 %), step = 200 ps          (2 %)
    tran: time = 3.31 ns     (33.1 %), step = 200 ps          (2 %)
    tran: time = 3.91 ns     (39.1 %), step = 200 ps          (2 %)
    tran: time = 4.31 ns     (43.1 %), step = 200 ps          (2 %)
    tran: time = 4.91 ns     (49.1 %), step = 200 ps          (2 %)
    tran: time = 5.31 ns     (53.1 %), step = 200 ps          (2 %)
    tran: time = 5.91 ns     (59.1 %), step = 200 ps          (2 %)
    tran: time = 6.31 ns     (63.1 %), step = 200 ps          (2 %)
    tran: time = 6.91 ns     (69.1 %), step = 200 ps          (2 %)
    tran: time = 7.31 ns     (73.1 %), step = 200 ps          (2 %)
    tran: time = 7.91 ns     (79.1 %), step = 200 ps          (2 %)
    tran: time = 8.31 ns     (83.1 %), step = 200 ps          (2 %)
    tran: time = 8.91 ns     (89.1 %), step = 200 ps          (2 %)
    tran: time = 9.31 ns     (93.1 %), step = 200 ps          (2 %)
    tran: time = 9.855 ns    (98.6 %), step = 145 ps       (1.45 %)
Number of accepted tran steps =             54

Maximum value achieved for any signal of each quantity: 
V: V(net4) = 250 mV
I: I(V4:p) = 0 A
If your circuit contains signals of the same quantity that are vastly different in size (such as high voltage circuitry combined with low voltage control circuitry), you should consider specifying global option `bin_relref=yes'.

~~~~~~~~~~~~~~~~~~~~~~~~~~~~~~~~~
Post-Transient Simulation Summary
~~~~~~~~~~~~~~~~~~~~~~~~~~~~~~~~~
   -   To further speed up simulation, consider
          add ++aps on command line
~~~~~~~~~~~~~~~~~~~~~~~~~~~~~~~~~


During simulation, the CPU load for active processors is :
        Spectre  0 (10.7 %)      2 (27.9 %)      4 (2.7 %)       6 (1.8 %)
                 8 (2.7 %)      10 (1.8 %)      16 (1.8 %)      18 (5.4 %)
                19 (5.4 %)      20 (2.6 %)      21 (1.8 %)      22 (1.8 %)
                24 (21.2 %)     26 (9.8 %)      
        Other   
Initial condition solution time: CPU = 1 ms, elapsed = 1.59097 ms.
Intrinsic tran analysis time:    CPU = 17.996 ms, elapsed = 22.3632 ms.
Total time required for tran analysis `tran': CPU = 22.996 ms, elapsed = 31.805 ms.
Time accumulated: CPU = 423.934 ms, elapsed = 1.14594 s.
Peak resident memory used = 44 Mbytes.

finalTimeOP: writing operating point information to rawfile.

Opening the PSF file ../psf/finalTimeOP.info ...
modelParameter: writing model parameter values to rawfile.

Opening the PSF file ../psf/modelParameter.info ...
element: writing instance parameter values to rawfile.

Opening the PSF file ../psf/element.info ...
outputParameter: writing output parameter values to rawfile.

Opening the PSF file ../psf/outputParameter.info ...
designParamVals: writing netlist parameters to rawfile.

Opening the PSFASCII file ../psf/designParamVals.info ...
primitives: writing primitives to rawfile.

Opening the PSFASCII file ../psf/primitives.info.primitives ...
subckts: writing subcircuits to rawfile.

Opening the PSFASCII file ../psf/subckts.info.subckts ...

Warning from spectre.
    WARNING (CMI-2419): gpdk090_pmos1v: `imax' = 1 A is larger than `imelt' = 10 mA.  `imelt' is increased to `imax'.
    WARNING (CMI-2477): I0.PM13: `Rds' = 10.0645 uOhm is less than 0.001. Set to 0.
    WARNING (CMI-2477): I0.PM12: `Rds' = 5.45455 uOhm is less than 0.001. Set to 0.
    WARNING (CMI-2477): I0.PM9: `Rds' = 8.21053 uOhm is less than 0.001. Set to 0.
    WARNING (CMI-2477): I0.PM5: `Rds' = 17.3333 uOhm is less than 0.001. Set to 0.
    WARNING (CMI-2419): gpdk090_nmos1v: `imax' = 1 A is larger than `imelt' = 10 mA.  `imelt' is increased to `imax'.
    WARNING (SPECTRE-16707): Only tran supports psfxl format, result of other analyses will be in psfbin format.


************************************************
Transient Analysis `tran': time = (0 s -> 10 ns)
************************************************

Opening the PSFXL file ../psf/tran.tran.tran ...
Important parameter values:
    start = 0 s
    outputstart = 0 s
    stop = 10 ns
    step = 10 ps
    maxstep = 200 ps
    ic = all
    useprevic = no
    skipdc = no
    reltol = 1e-03
    abstol(V) = 1 uV
    abstol(I) = 1 pA
    temp = 27 C
    tnom = 27 C
    tempeffects = all
    errpreset = moderate
    method = traponly
    lteratio = 3.5
    relref = sigglobal
    cmin = 0 F
    gmin = 1 pS


Output and IC/nodeset summary:
                 save   5       (current)
                 save   18      (voltage)

    tran: time = 310 ps       (3.1 %), step = 160 ps        (1.6 %)
    tran: time = 910 ps       (9.1 %), step = 200 ps          (2 %)
    tran: time = 1.31 ns     (13.1 %), step = 200 ps          (2 %)
    tran: time = 1.91 ns     (19.1 %), step = 200 ps          (2 %)
    tran: time = 2.31 ns     (23.1 %), step = 200 ps          (2 %)
    tran: time = 2.91 ns     (29.1 %), step = 200 ps          (2 %)
    tran: time = 3.31 ns     (33.1 %), step = 200 ps          (2 %)
    tran: time = 3.91 ns     (39.1 %), step = 200 ps          (2 %)
    tran: time = 4.31 ns     (43.1 %), step = 200 ps          (2 %)
    tran: time = 4.91 ns     (49.1 %), step = 200 ps          (2 %)
    tran: time = 5.31 ns     (53.1 %), step = 200 ps          (2 %)
    tran: time = 5.91 ns     (59.1 %), step = 200 ps          (2 %)
    tran: time = 6.31 ns     (63.1 %), step = 200 ps          (2 %)
    tran: time = 6.91 ns     (69.1 %), step = 200 ps          (2 %)
    tran: time = 7.31 ns     (73.1 %), step = 200 ps          (2 %)
    tran: time = 7.91 ns     (79.1 %), step = 200 ps          (2 %)
    tran: time = 8.31 ns     (83.1 %), step = 200 ps          (2 %)
    tran: time = 8.91 ns     (89.1 %), step = 200 ps          (2 %)
    tran: time = 9.31 ns     (93.1 %), step = 200 ps          (2 %)
    tran: time = 9.855 ns    (98.6 %), step = 145 ps       (1.45 %)
Number of accepted tran steps =             54

Maximum value achieved for any signal of each quantity: 
V: V(net4) = 500 mV
I: I(V4:p) = 0 A
If your circuit contains signals of the same quantity that are vastly different in size (such as high voltage circuitry combined with low voltage control circuitry), you should consider specifying global option `bin_relref=yes'.

~~~~~~~~~~~~~~~~~~~~~~~~~~~~~~~~~
Post-Transient Simulation Summary
~~~~~~~~~~~~~~~~~~~~~~~~~~~~~~~~~
   -   To further speed up simulation, consider
          add ++aps on command line
~~~~~~~~~~~~~~~~~~~~~~~~~~~~~~~~~


During simulation, the CPU load for active processors is :
        Spectre  0 (12.3 %)      1 (2.5 %)       2 (23.9 %)      4 (2.0 %)
                 6 (1.0 %)       8 (5.1 %)      10 (1.0 %)      16 (1.0 %)
                17 (1.0 %)      18 (7.5 %)      19 (3.6 %)      20 (1.5 %)
                21 (1.5 %)      22 (1.0 %)      23 (1.0 %)      24 (15.2 %)
                26 (5.6 %)      
        Other   
Initial condition solution time: CPU = 1 ms, elapsed = 1.62506 ms.
Intrinsic tran analysis time:    CPU = 15.998 ms, elapsed = 20.9069 ms.
Total time required for tran analysis `tran': CPU = 22.996 ms, elapsed = 36.885 ms.
Time accumulated: CPU = 501.923 ms, elapsed = 1.99238 s.
Peak resident memory used = 44.2 Mbytes.

finalTimeOP: writing operating point information to rawfile.

Opening the PSF file ../psf/finalTimeOP.info ...
modelParameter: writing model parameter values to rawfile.

Opening the PSF file ../psf/modelParameter.info ...
element: writing instance parameter values to rawfile.

Opening the PSF file ../psf/element.info ...
outputParameter: writing output parameter values to rawfile.

Opening the PSF file ../psf/outputParameter.info ...
designParamVals: writing netlist parameters to rawfile.

Opening the PSFASCII file ../psf/designParamVals.info ...
primitives: writing primitives to rawfile.

Opening the PSFASCII file ../psf/primitives.info.primitives ...
subckts: writing subcircuits to rawfile.

Opening the PSFASCII file ../psf/subckts.info.subckts ...

Warning from spectre.
    WARNING (CMI-2419): gpdk090_pmos1v: `imax' = 1 A is larger than `imelt' = 10 mA.  `imelt' is increased to `imax'.
    WARNING (CMI-2477): I0.PM13: `Rds' = 10.0645 uOhm is less than 0.001. Set to 0.
    WARNING (CMI-2477): I0.PM12: `Rds' = 5.45455 uOhm is less than 0.001. Set to 0.
    WARNING (CMI-2477): I0.PM9: `Rds' = 8.21053 uOhm is less than 0.001. Set to 0.
    WARNING (CMI-2477): I0.PM5: `Rds' = 17.3333 uOhm is less than 0.001. Set to 0.
    WARNING (CMI-2419): gpdk090_nmos1v: `imax' = 1 A is larger than `imelt' = 10 mA.  `imelt' is increased to `imax'.
    WARNING (SPECTRE-16707): Only tran supports psfxl format, result of other analyses will be in psfbin format.


************************************************
Transient Analysis `tran': time = (0 s -> 10 ns)
************************************************

Opening the PSFXL file ../psf/tran.tran.tran ...
Important parameter values:
    start = 0 s
    outputstart = 0 s
    stop = 10 ns
    step = 10 ps
    maxstep = 200 ps
    ic = all
    useprevic = no
    skipdc = no
    reltol = 1e-03
    abstol(V) = 1 uV
    abstol(I) = 1 pA
    temp = 27 C
    tnom = 27 C
    tempeffects = all
    errpreset = moderate
    method = traponly
    lteratio = 3.5
    relref = sigglobal
    cmin = 0 F
    gmin = 1 pS


Output and IC/nodeset summary:
                 save   5       (current)
                 save   18      (voltage)

    tran: time = 310 ps       (3.1 %), step = 160 ps        (1.6 %)
    tran: time = 910 ps       (9.1 %), step = 200 ps          (2 %)
    tran: time = 1.31 ns     (13.1 %), step = 200 ps          (2 %)
    tran: time = 1.91 ns     (19.1 %), step = 200 ps          (2 %)
    tran: time = 2.31 ns     (23.1 %), step = 200 ps          (2 %)
    tran: time = 2.91 ns     (29.1 %), step = 200 ps          (2 %)
    tran: time = 3.31 ns     (33.1 %), step = 200 ps          (2 %)
    tran: time = 3.91 ns     (39.1 %), step = 200 ps          (2 %)
    tran: time = 4.31 ns     (43.1 %), step = 200 ps          (2 %)
    tran: time = 4.91 ns     (49.1 %), step = 200 ps          (2 %)
    tran: time = 5.31 ns     (53.1 %), step = 200 ps          (2 %)
    tran: time = 5.91 ns     (59.1 %), step = 200 ps          (2 %)
    tran: time = 6.31 ns     (63.1 %), step = 200 ps          (2 %)
    tran: time = 6.91 ns     (69.1 %), step = 200 ps          (2 %)
    tran: time = 7.31 ns     (73.1 %), step = 200 ps          (2 %)
    tran: time = 7.91 ns     (79.1 %), step = 200 ps          (2 %)
    tran: time = 8.31 ns     (83.1 %), step = 200 ps          (2 %)
    tran: time = 8.91 ns     (89.1 %), step = 200 ps          (2 %)
    tran: time = 9.31 ns     (93.1 %), step = 200 ps          (2 %)
    tran: time = 9.855 ns    (98.6 %), step = 145 ps       (1.45 %)
Number of accepted tran steps =             54

Maximum value achieved for any signal of each quantity: 
V: V(net4) = 750 mV
I: I(V4:p) = 0 A
If your circuit contains signals of the same quantity that are vastly different in size (such as high voltage circuitry combined with low voltage control circuitry), you should consider specifying global option `bin_relref=yes'.

~~~~~~~~~~~~~~~~~~~~~~~~~~~~~~~~~
Post-Transient Simulation Summary
~~~~~~~~~~~~~~~~~~~~~~~~~~~~~~~~~
   -   To further speed up simulation, consider
          add ++aps on command line
~~~~~~~~~~~~~~~~~~~~~~~~~~~~~~~~~


During simulation, the CPU load for active processors is :
        Spectre  0 (15.2 %)      1 (1.7 %)       2 (21.6 %)      4 (1.7 %)
                 8 (3.3 %)      10 (1.3 %)      18 (6.6 %)      19 (2.7 %)
                21 (1.7 %)      23 (1.3 %)      24 (12.6 %)     26 (10.7 %)
        Other   
Initial condition solution time: CPU = 0 s, elapsed = 973.94 us.
Intrinsic tran analysis time:    CPU = 19.998 ms, elapsed = 28.434 ms.
Total time required for tran analysis `tran': CPU = 23.997 ms, elapsed = 45.6309 ms.
Time accumulated: CPU = 577.911 ms, elapsed = 3.0166 s.
Peak resident memory used = 44.5 Mbytes.

finalTimeOP: writing operating point information to rawfile.

Opening the PSF file ../psf/finalTimeOP.info ...
modelParameter: writing model parameter values to rawfile.

Opening the PSF file ../psf/modelParameter.info ...
element: writing instance parameter values to rawfile.

Opening the PSF file ../psf/element.info ...
outputParameter: writing output parameter values to rawfile.

Opening the PSF file ../psf/outputParameter.info ...
designParamVals: writing netlist parameters to rawfile.

Opening the PSFASCII file ../psf/designParamVals.info ...
primitives: writing primitives to rawfile.

Opening the PSFASCII file ../psf/primitives.info.primitives ...
subckts: writing subcircuits to rawfile.

Opening the PSFASCII file ../psf/subckts.info.subckts ...

Warning from spectre.
    WARNING (CMI-2419): gpdk090_pmos1v: `imax' = 1 A is larger than `imelt' = 10 mA.  `imelt' is increased to `imax'.
    WARNING (CMI-2477): I0.PM13: `Rds' = 10.0645 uOhm is less than 0.001. Set to 0.
    WARNING (CMI-2477): I0.PM12: `Rds' = 5.45455 uOhm is less than 0.001. Set to 0.
    WARNING (CMI-2477): I0.PM9: `Rds' = 8.21053 uOhm is less than 0.001. Set to 0.
    WARNING (CMI-2477): I0.PM5: `Rds' = 17.3333 uOhm is less than 0.001. Set to 0.
    WARNING (CMI-2419): gpdk090_nmos1v: `imax' = 1 A is larger than `imelt' = 10 mA.  `imelt' is increased to `imax'.
    WARNING (SPECTRE-16707): Only tran supports psfxl format, result of other analyses will be in psfbin format.


************************************************
Transient Analysis `tran': time = (0 s -> 10 ns)
************************************************

Opening the PSFXL file ../psf/tran.tran.tran ...
Important parameter values:
    start = 0 s
    outputstart = 0 s
    stop = 10 ns
    step = 10 ps
    maxstep = 200 ps
    ic = all
    useprevic = no
    skipdc = no
    reltol = 1e-03
    abstol(V) = 1 uV
    abstol(I) = 1 pA
    temp = 27 C
    tnom = 27 C
    tempeffects = all
    errpreset = moderate
    method = traponly
    lteratio = 3.5
    relref = sigglobal
    cmin = 0 F
    gmin = 1 pS


Output and IC/nodeset summary:
                 save   5       (current)
                 save   18      (voltage)

    tran: time = 310 ps       (3.1 %), step = 160 ps        (1.6 %)
    tran: time = 910 ps       (9.1 %), step = 200 ps          (2 %)
    tran: time = 1.31 ns     (13.1 %), step = 200 ps          (2 %)
    tran: time = 1.91 ns     (19.1 %), step = 200 ps          (2 %)
    tran: time = 2.31 ns     (23.1 %), step = 200 ps          (2 %)
    tran: time = 2.91 ns     (29.1 %), step = 200 ps          (2 %)
    tran: time = 3.31 ns     (33.1 %), step = 200 ps          (2 %)
    tran: time = 3.91 ns     (39.1 %), step = 200 ps          (2 %)
    tran: time = 4.31 ns     (43.1 %), step = 200 ps          (2 %)
    tran: time = 4.91 ns     (49.1 %), step = 200 ps          (2 %)
    tran: time = 5.31 ns     (53.1 %), step = 200 ps          (2 %)
    tran: time = 5.91 ns     (59.1 %), step = 200 ps          (2 %)
    tran: time = 6.31 ns     (63.1 %), step = 200 ps          (2 %)
    tran: time = 6.91 ns     (69.1 %), step = 200 ps          (2 %)
    tran: time = 7.31 ns     (73.1 %), step = 200 ps          (2 %)
    tran: time = 7.91 ns     (79.1 %), step = 200 ps          (2 %)
    tran: time = 8.31 ns     (83.1 %), step = 200 ps          (2 %)
    tran: time = 8.91 ns     (89.1 %), step = 200 ps          (2 %)
    tran: time = 9.31 ns     (93.1 %), step = 200 ps          (2 %)
    tran: time = 9.855 ns    (98.6 %), step = 145 ps       (1.45 %)
Number of accepted tran steps =             54

Maximum value achieved for any signal of each quantity: 
V: V(net4) = 1 V
I: I(V4:p) = 0 A
If your circuit contains signals of the same quantity that are vastly different in size (such as high voltage circuitry combined with low voltage control circuitry), you should consider specifying global option `bin_relref=yes'.

~~~~~~~~~~~~~~~~~~~~~~~~~~~~~~~~~
Post-Transient Simulation Summary
~~~~~~~~~~~~~~~~~~~~~~~~~~~~~~~~~
   -   To further speed up simulation, consider
          add ++aps on command line
~~~~~~~~~~~~~~~~~~~~~~~~~~~~~~~~~


During simulation, the CPU load for active processors is :
        Spectre  0 (14.9 %)      1 (2.1 %)       2 (20.4 %)      4 (2.1 %)
                 8 (2.8 %)      10 (1.6 %)      18 (6.2 %)      19 (2.6 %)
                21 (1.3 %)      23 (1.0 %)      24 (11.4 %)     26 (8.6 %)
        Other   
Initial condition solution time: CPU = 1 ms, elapsed = 1.02115 ms.
Intrinsic tran analysis time:    CPU = 22.996 ms, elapsed = 28.702 ms.
Total time required for tran analysis `tran': CPU = 26.995 ms, elapsed = 36.736 ms.
Time accumulated: CPU = 655.899 ms, elapsed = 3.88648 s.
Peak resident memory used = 44.7 Mbytes.

finalTimeOP: writing operating point information to rawfile.

Opening the PSF file ../psf/finalTimeOP.info ...
modelParameter: writing model parameter values to rawfile.

Opening the PSF file ../psf/modelParameter.info ...
element: writing instance parameter values to rawfile.

Opening the PSF file ../psf/element.info ...
outputParameter: writing output parameter values to rawfile.

Opening the PSF file ../psf/outputParameter.info ...
designParamVals: writing netlist parameters to rawfile.

Opening the PSFASCII file ../psf/designParamVals.info ...
primitives: writing primitives to rawfile.

Opening the PSFASCII file ../psf/primitives.info.primitives ...
subckts: writing subcircuits to rawfile.

Opening the PSFASCII file ../psf/subckts.info.subckts ...

Warning from spectre.
    WARNING (CMI-2419): gpdk090_pmos1v: `imax' = 1 A is larger than `imelt' = 10 mA.  `imelt' is increased to `imax'.
    WARNING (CMI-2477): I0.PM0: `Rds' = 8.21053 uOhm is less than 0.001. Set to 0.
    WARNING (CMI-2477): I0.PM5: `Rds' = 17.3333 uOhm is less than 0.001. Set to 0.
    WARNING (CMI-2477): I0.PM10: `Rds' = 5.45455 uOhm is less than 0.001. Set to 0.
    WARNING (CMI-2477): I0.PM13: `Rds' = 10.0645 uOhm is less than 0.001. Set to 0.
    WARNING (CMI-2419): gpdk090_nmos1v: `imax' = 1 A is larger than `imelt' = 10 mA.  `imelt' is increased to `imax'.
    WARNING (SPECTRE-16707): Only tran supports psfxl format, result of other analyses will be in psfbin format.


************************************************
Transient Analysis `tran': time = (0 s -> 10 ns)
************************************************

Opening the PSFXL file ../psf/tran.tran.tran ...
Important parameter values:
    start = 0 s
    outputstart = 0 s
    stop = 10 ns
    step = 10 ps
    maxstep = 200 ps
    ic = all
    useprevic = no
    skipdc = no
    reltol = 1e-03
    abstol(V) = 1 uV
    abstol(I) = 1 pA
    temp = 27 C
    tnom = 27 C
    tempeffects = all
    errpreset = moderate
    method = traponly
    lteratio = 3.5
    relref = sigglobal
    cmin = 0 F
    gmin = 1 pS


Output and IC/nodeset summary:
                 save   5       (current)
                 save   18      (voltage)

    tran: time = 310 ps       (3.1 %), step = 160 ps        (1.6 %)
    tran: time = 910 ps       (9.1 %), step = 200 ps          (2 %)
    tran: time = 1.31 ns     (13.1 %), step = 200 ps          (2 %)
    tran: time = 1.91 ns     (19.1 %), step = 200 ps          (2 %)
    tran: time = 2.31 ns     (23.1 %), step = 200 ps          (2 %)
    tran: time = 2.91 ns     (29.1 %), step = 200 ps          (2 %)
    tran: time = 3.31 ns     (33.1 %), step = 200 ps          (2 %)
    tran: time = 3.91 ns     (39.1 %), step = 200 ps          (2 %)
    tran: time = 4.31 ns     (43.1 %), step = 200 ps          (2 %)
    tran: time = 4.91 ns     (49.1 %), step = 200 ps          (2 %)
    tran: time = 5.31 ns     (53.1 %), step = 200 ps          (2 %)
    tran: time = 5.91 ns     (59.1 %), step = 200 ps          (2 %)
    tran: time = 6.31 ns     (63.1 %), step = 200 ps          (2 %)
    tran: time = 6.91 ns     (69.1 %), step = 200 ps          (2 %)
    tran: time = 7.31 ns     (73.1 %), step = 200 ps          (2 %)
    tran: time = 7.91 ns     (79.1 %), step = 200 ps          (2 %)
    tran: time = 8.31 ns     (83.1 %), step = 200 ps          (2 %)
    tran: time = 8.91 ns     (89.1 %), step = 200 ps          (2 %)
    tran: time = 9.31 ns     (93.1 %), step = 200 ps          (2 %)
    tran: time = 9.855 ns    (98.6 %), step = 145 ps       (1.45 %)
Number of accepted tran steps =             54

Maximum value achieved for any signal of each quantity: 
V: V(net3) = 250 mV
I: I(V4:p) = 0 A
If your circuit contains signals of the same quantity that are vastly different in size (such as high voltage circuitry combined with low voltage control circuitry), you should consider specifying global option `bin_relref=yes'.

~~~~~~~~~~~~~~~~~~~~~~~~~~~~~~~~~
Post-Transient Simulation Summary
~~~~~~~~~~~~~~~~~~~~~~~~~~~~~~~~~
   -   To further speed up simulation, consider
          add ++aps on command line
~~~~~~~~~~~~~~~~~~~~~~~~~~~~~~~~~


During simulation, the CPU load for active processors is :
        Spectre  0 (14.9 %)      1 (1.7 %)       2 (20.6 %)      4 (2.1 %)
                 8 (2.4 %)      10 (1.9 %)      18 (6.4 %)      19 (2.8 %)
                21 (1.3 %)      24 (11.1 %)     26 (7.3 %)      
        Other   
Initial condition solution time: CPU = 2 ms, elapsed = 1.8599 ms.
Intrinsic tran analysis time:    CPU = 19.997 ms, elapsed = 28.6212 ms.
Total time required for tran analysis `tran': CPU = 25.996 ms, elapsed = 41.26 ms.
Time accumulated: CPU = 738.887 ms, elapsed = 4.68235 s.
Peak resident memory used = 44.9 Mbytes.

finalTimeOP: writing operating point information to rawfile.

Opening the PSF file ../psf/finalTimeOP.info ...
modelParameter: writing model parameter values to rawfile.

Opening the PSF file ../psf/modelParameter.info ...
element: writing instance parameter values to rawfile.

Opening the PSF file ../psf/element.info ...
outputParameter: writing output parameter values to rawfile.

Opening the PSF file ../psf/outputParameter.info ...
designParamVals: writing netlist parameters to rawfile.

Opening the PSFASCII file ../psf/designParamVals.info ...
primitives: writing primitives to rawfile.

Opening the PSFASCII file ../psf/primitives.info.primitives ...
subckts: writing subcircuits to rawfile.

Opening the PSFASCII file ../psf/subckts.info.subckts ...

Warning from spectre.
    WARNING (CMI-2419): gpdk090_pmos1v: `imax' = 1 A is larger than `imelt' = 10 mA.  `imelt' is increased to `imax'.
    WARNING (CMI-2477): I0.PM13: `Rds' = 10.0645 uOhm is less than 0.001. Set to 0.
    WARNING (CMI-2477): I0.PM12: `Rds' = 5.45455 uOhm is less than 0.001. Set to 0.
    WARNING (CMI-2477): I0.PM9: `Rds' = 8.21053 uOhm is less than 0.001. Set to 0.
    WARNING (CMI-2477): I0.PM5: `Rds' = 17.3333 uOhm is less than 0.001. Set to 0.
    WARNING (CMI-2419): gpdk090_nmos1v: `imax' = 1 A is larger than `imelt' = 10 mA.  `imelt' is increased to `imax'.
    WARNING (SPECTRE-16707): Only tran supports psfxl format, result of other analyses will be in psfbin format.


************************************************
Transient Analysis `tran': time = (0 s -> 10 ns)
************************************************

Opening the PSFXL file ../psf/tran.tran.tran ...
Important parameter values:
    start = 0 s
    outputstart = 0 s
    stop = 10 ns
    step = 10 ps
    maxstep = 200 ps
    ic = all
    useprevic = no
    skipdc = no
    reltol = 1e-03
    abstol(V) = 1 uV
    abstol(I) = 1 pA
    temp = 27 C
    tnom = 27 C
    tempeffects = all
    errpreset = moderate
    method = traponly
    lteratio = 3.5
    relref = sigglobal
    cmin = 0 F
    gmin = 1 pS


Output and IC/nodeset summary:
                 save   5       (current)
                 save   18      (voltage)

    tran: time = 310 ps       (3.1 %), step = 160 ps        (1.6 %)
    tran: time = 910 ps       (9.1 %), step = 200 ps          (2 %)
    tran: time = 1.31 ns     (13.1 %), step = 200 ps          (2 %)
    tran: time = 1.91 ns     (19.1 %), step = 200 ps          (2 %)
    tran: time = 2.31 ns     (23.1 %), step = 200 ps          (2 %)
    tran: time = 2.91 ns     (29.1 %), step = 200 ps          (2 %)
    tran: time = 3.31 ns     (33.1 %), step = 200 ps          (2 %)
    tran: time = 3.91 ns     (39.1 %), step = 200 ps          (2 %)
    tran: time = 4.31 ns     (43.1 %), step = 200 ps          (2 %)
    tran: time = 4.91 ns     (49.1 %), step = 200 ps          (2 %)
    tran: time = 5.31 ns     (53.1 %), step = 200 ps          (2 %)
    tran: time = 5.91 ns     (59.1 %), step = 200 ps          (2 %)
    tran: time = 6.31 ns     (63.1 %), step = 200 ps          (2 %)
    tran: time = 6.91 ns     (69.1 %), step = 200 ps          (2 %)
    tran: time = 7.31 ns     (73.1 %), step = 200 ps          (2 %)
    tran: time = 7.91 ns     (79.1 %), step = 200 ps          (2 %)
    tran: time = 8.31 ns     (83.1 %), step = 200 ps          (2 %)
    tran: time = 8.91 ns     (89.1 %), step = 200 ps          (2 %)
    tran: time = 9.31 ns     (93.1 %), step = 200 ps          (2 %)
    tran: time = 9.855 ns    (98.6 %), step = 145 ps       (1.45 %)
Number of accepted tran steps =             54

Maximum value achieved for any signal of each quantity: 
V: V(net4) = 250 mV
I: I(V4:p) = 0 A
If your circuit contains signals of the same quantity that are vastly different in size (such as high voltage circuitry combined with low voltage control circuitry), you should consider specifying global option `bin_relref=yes'.

~~~~~~~~~~~~~~~~~~~~~~~~~~~~~~~~~
Post-Transient Simulation Summary
~~~~~~~~~~~~~~~~~~~~~~~~~~~~~~~~~
   -   To further speed up simulation, consider
          add ++aps on command line
~~~~~~~~~~~~~~~~~~~~~~~~~~~~~~~~~


During simulation, the CPU load for active processors is :
        Spectre  0 (15.2 %)      1 (1.5 %)       2 (20.5 %)      4 (2.0 %)
                 8 (2.0 %)      10 (1.9 %)      18 (6.1 %)      19 (2.8 %)
                21 (1.1 %)      24 (10.7 %)     26 (11.7 %)     
        Other   
Initial condition solution time: CPU = 1.999 ms, elapsed = 1.67799 ms.
Intrinsic tran analysis time:    CPU = 22.997 ms, elapsed = 26.2721 ms.
Total time required for tran analysis `tran': CPU = 27.995 ms, elapsed = 35.6271 ms.
Time accumulated: CPU = 814.875 ms, elapsed = 5.43531 s.
Peak resident memory used = 45.1 Mbytes.

finalTimeOP: writing operating point information to rawfile.

Opening the PSF file ../psf/finalTimeOP.info ...
modelParameter: writing model parameter values to rawfile.

Opening the PSF file ../psf/modelParameter.info ...
element: writing instance parameter values to rawfile.

Opening the PSF file ../psf/element.info ...
outputParameter: writing output parameter values to rawfile.

Opening the PSF file ../psf/outputParameter.info ...
designParamVals: writing netlist parameters to rawfile.

Opening the PSFASCII file ../psf/designParamVals.info ...
primitives: writing primitives to rawfile.

Opening the PSFASCII file ../psf/primitives.info.primitives ...
subckts: writing subcircuits to rawfile.

Opening the PSFASCII file ../psf/subckts.info.subckts ...

Warning from spectre.
    WARNING (CMI-2419): gpdk090_pmos1v: `imax' = 1 A is larger than `imelt' = 10 mA.  `imelt' is increased to `imax'.
    WARNING (CMI-2477): I0.PM13: `Rds' = 10.0645 uOhm is less than 0.001. Set to 0.
    WARNING (CMI-2477): I0.PM12: `Rds' = 5.45455 uOhm is less than 0.001. Set to 0.
    WARNING (CMI-2477): I0.PM9: `Rds' = 8.21053 uOhm is less than 0.001. Set to 0.
    WARNING (CMI-2477): I0.PM5: `Rds' = 17.3333 uOhm is less than 0.001. Set to 0.
    WARNING (CMI-2419): gpdk090_nmos1v: `imax' = 1 A is larger than `imelt' = 10 mA.  `imelt' is increased to `imax'.
    WARNING (SPECTRE-16707): Only tran supports psfxl format, result of other analyses will be in psfbin format.


************************************************
Transient Analysis `tran': time = (0 s -> 10 ns)
************************************************

Opening the PSFXL file ../psf/tran.tran.tran ...
Important parameter values:
    start = 0 s
    outputstart = 0 s
    stop = 10 ns
    step = 10 ps
    maxstep = 200 ps
    ic = all
    useprevic = no
    skipdc = no
    reltol = 1e-03
    abstol(V) = 1 uV
    abstol(I) = 1 pA
    temp = 27 C
    tnom = 27 C
    tempeffects = all
    errpreset = moderate
    method = traponly
    lteratio = 3.5
    relref = sigglobal
    cmin = 0 F
    gmin = 1 pS


Output and IC/nodeset summary:
                 save   5       (current)
                 save   18      (voltage)

    tran: time = 310 ps       (3.1 %), step = 160 ps        (1.6 %)
    tran: time = 910 ps       (9.1 %), step = 200 ps          (2 %)
    tran: time = 1.31 ns     (13.1 %), step = 200 ps          (2 %)
    tran: time = 1.91 ns     (19.1 %), step = 200 ps          (2 %)
    tran: time = 2.31 ns     (23.1 %), step = 200 ps          (2 %)
    tran: time = 2.91 ns     (29.1 %), step = 200 ps          (2 %)
    tran: time = 3.31 ns     (33.1 %), step = 200 ps          (2 %)
    tran: time = 3.91 ns     (39.1 %), step = 200 ps          (2 %)
    tran: time = 4.31 ns     (43.1 %), step = 200 ps          (2 %)
    tran: time = 4.91 ns     (49.1 %), step = 200 ps          (2 %)
    tran: time = 5.31 ns     (53.1 %), step = 200 ps          (2 %)
    tran: time = 5.91 ns     (59.1 %), step = 200 ps          (2 %)
    tran: time = 6.31 ns     (63.1 %), step = 200 ps          (2 %)
    tran: time = 6.91 ns     (69.1 %), step = 200 ps          (2 %)
    tran: time = 7.31 ns     (73.1 %), step = 200 ps          (2 %)
    tran: time = 7.91 ns     (79.1 %), step = 200 ps          (2 %)
    tran: time = 8.31 ns     (83.1 %), step = 200 ps          (2 %)
    tran: time = 8.91 ns     (89.1 %), step = 200 ps          (2 %)
    tran: time = 9.31 ns     (93.1 %), step = 200 ps          (2 %)
    tran: time = 9.855 ns    (98.6 %), step = 145 ps       (1.45 %)
Number of accepted tran steps =             54

Maximum value achieved for any signal of each quantity: 
V: V(net4) = 500 mV
I: I(V4:p) = 0 A
If your circuit contains signals of the same quantity that are vastly different in size (such as high voltage circuitry combined with low voltage control circuitry), you should consider specifying global option `bin_relref=yes'.

~~~~~~~~~~~~~~~~~~~~~~~~~~~~~~~~~
Post-Transient Simulation Summary
~~~~~~~~~~~~~~~~~~~~~~~~~~~~~~~~~
   -   To further speed up simulation, consider
          add ++aps on command line
~~~~~~~~~~~~~~~~~~~~~~~~~~~~~~~~~


During simulation, the CPU load for active processors is :
        Spectre  0 (15.5 %)      1 (1.3 %)       2 (20.7 %)      4 (1.8 %)
                 8 (1.8 %)      10 (1.8 %)      18 (5.8 %)      19 (2.6 %)
                24 (10.5 %)     26 (12.2 %)     
        Other   
Initial condition solution time: CPU = 2 ms, elapsed = 1.75881 ms.
Intrinsic tran analysis time:    CPU = 22.996 ms, elapsed = 29.9289 ms.
Total time required for tran analysis `tran': CPU = 28.996 ms, elapsed = 42.778 ms.
Time accumulated: CPU = 890.864 ms, elapsed = 6.19732 s.
Peak resident memory used = 45.3 Mbytes.

finalTimeOP: writing operating point information to rawfile.

Opening the PSF file ../psf/finalTimeOP.info ...
modelParameter: writing model parameter values to rawfile.

Opening the PSF file ../psf/modelParameter.info ...
element: writing instance parameter values to rawfile.

Opening the PSF file ../psf/element.info ...
outputParameter: writing output parameter values to rawfile.

Opening the PSF file ../psf/outputParameter.info ...
designParamVals: writing netlist parameters to rawfile.

Opening the PSFASCII file ../psf/designParamVals.info ...
primitives: writing primitives to rawfile.

Opening the PSFASCII file ../psf/primitives.info.primitives ...
subckts: writing subcircuits to rawfile.

Opening the PSFASCII file ../psf/subckts.info.subckts ...

Warning from spectre.
    WARNING (CMI-2419): gpdk090_pmos1v: `imax' = 1 A is larger than `imelt' = 10 mA.  `imelt' is increased to `imax'.
    WARNING (CMI-2477): I0.PM13: `Rds' = 10.0645 uOhm is less than 0.001. Set to 0.
    WARNING (CMI-2477): I0.PM12: `Rds' = 5.45455 uOhm is less than 0.001. Set to 0.
    WARNING (CMI-2477): I0.PM9: `Rds' = 8.21053 uOhm is less than 0.001. Set to 0.
    WARNING (CMI-2477): I0.PM5: `Rds' = 17.3333 uOhm is less than 0.001. Set to 0.
    WARNING (CMI-2419): gpdk090_nmos1v: `imax' = 1 A is larger than `imelt' = 10 mA.  `imelt' is increased to `imax'.
    WARNING (SPECTRE-16707): Only tran supports psfxl format, result of other analyses will be in psfbin format.


************************************************
Transient Analysis `tran': time = (0 s -> 10 ns)
************************************************

Opening the PSFXL file ../psf/tran.tran.tran ...
Important parameter values:
    start = 0 s
    outputstart = 0 s
    stop = 10 ns
    step = 10 ps
    maxstep = 200 ps
    ic = all
    useprevic = no
    skipdc = no
    reltol = 1e-03
    abstol(V) = 1 uV
    abstol(I) = 1 pA
    temp = 27 C
    tnom = 27 C
    tempeffects = all
    errpreset = moderate
    method = traponly
    lteratio = 3.5
    relref = sigglobal
    cmin = 0 F
    gmin = 1 pS


Output and IC/nodeset summary:
                 save   5       (current)
                 save   18      (voltage)

    tran: time = 310 ps       (3.1 %), step = 160 ps        (1.6 %)
    tran: time = 910 ps       (9.1 %), step = 200 ps          (2 %)
    tran: time = 1.31 ns     (13.1 %), step = 200 ps          (2 %)
    tran: time = 1.91 ns     (19.1 %), step = 200 ps          (2 %)
    tran: time = 2.31 ns     (23.1 %), step = 200 ps          (2 %)
    tran: time = 2.91 ns     (29.1 %), step = 200 ps          (2 %)
    tran: time = 3.31 ns     (33.1 %), step = 200 ps          (2 %)
    tran: time = 3.91 ns     (39.1 %), step = 200 ps          (2 %)
    tran: time = 4.31 ns     (43.1 %), step = 200 ps          (2 %)
    tran: time = 4.91 ns     (49.1 %), step = 200 ps          (2 %)
    tran: time = 5.31 ns     (53.1 %), step = 200 ps          (2 %)
    tran: time = 5.91 ns     (59.1 %), step = 200 ps          (2 %)
    tran: time = 6.31 ns     (63.1 %), step = 200 ps          (2 %)
    tran: time = 6.91 ns     (69.1 %), step = 200 ps          (2 %)
    tran: time = 7.31 ns     (73.1 %), step = 200 ps          (2 %)
    tran: time = 7.91 ns     (79.1 %), step = 200 ps          (2 %)
    tran: time = 8.31 ns     (83.1 %), step = 200 ps          (2 %)
    tran: time = 8.91 ns     (89.1 %), step = 200 ps          (2 %)
    tran: time = 9.31 ns     (93.1 %), step = 200 ps          (2 %)
    tran: time = 9.855 ns    (98.6 %), step = 145 ps       (1.45 %)
Number of accepted tran steps =             54

Maximum value achieved for any signal of each quantity: 
V: V(net4) = 750 mV
I: I(V4:p) = 0 A
If your circuit contains signals of the same quantity that are vastly different in size (such as high voltage circuitry combined with low voltage control circuitry), you should consider specifying global option `bin_relref=yes'.

~~~~~~~~~~~~~~~~~~~~~~~~~~~~~~~~~
Post-Transient Simulation Summary
~~~~~~~~~~~~~~~~~~~~~~~~~~~~~~~~~
   -   To further speed up simulation, consider
          add ++aps on command line
~~~~~~~~~~~~~~~~~~~~~~~~~~~~~~~~~


During simulation, the CPU load for active processors is :
        Spectre  0 (16.0 %)      1 (1.2 %)       2 (19.8 %)      4 (1.9 %)
                 8 (1.5 %)      10 (4.2 %)      18 (5.9 %)      19 (2.5 %)
                21 (1.1 %)      24 (9.9 %)      26 (10.9 %)     
        Other   
Initial condition solution time: CPU = 1.999 ms, elapsed = 1.53208 ms.
Intrinsic tran analysis time:    CPU = 18.998 ms, elapsed = 348.742 ms.
Total time required for tran analysis `tran': CPU = 23.996 ms, elapsed = 358.954 ms.
Time accumulated: CPU = 971.851 ms, elapsed = 7.2679 s.
Peak resident memory used = 45.6 Mbytes.

finalTimeOP: writing operating point information to rawfile.

Opening the PSF file ../psf/finalTimeOP.info ...
modelParameter: writing model parameter values to rawfile.

Opening the PSF file ../psf/modelParameter.info ...
element: writing instance parameter values to rawfile.

Opening the PSF file ../psf/element.info ...
outputParameter: writing output parameter values to rawfile.

Opening the PSF file ../psf/outputParameter.info ...
designParamVals: writing netlist parameters to rawfile.

Opening the PSFASCII file ../psf/designParamVals.info ...
primitives: writing primitives to rawfile.

Opening the PSFASCII file ../psf/primitives.info.primitives ...
subckts: writing subcircuits to rawfile.

Opening the PSFASCII file ../psf/subckts.info.subckts ...

Warning from spectre.
    WARNING (CMI-2419): gpdk090_pmos1v: `imax' = 1 A is larger than `imelt' = 10 mA.  `imelt' is increased to `imax'.
    WARNING (CMI-2477): I0.PM13: `Rds' = 10.0645 uOhm is less than 0.001. Set to 0.
    WARNING (CMI-2477): I0.PM12: `Rds' = 5.45455 uOhm is less than 0.001. Set to 0.
    WARNING (CMI-2477): I0.PM9: `Rds' = 8.21053 uOhm is less than 0.001. Set to 0.
    WARNING (CMI-2477): I0.PM5: `Rds' = 17.3333 uOhm is less than 0.001. Set to 0.
    WARNING (CMI-2419): gpdk090_nmos1v: `imax' = 1 A is larger than `imelt' = 10 mA.  `imelt' is increased to `imax'.
    WARNING (SPECTRE-16707): Only tran supports psfxl format, result of other analyses will be in psfbin format.


************************************************
Transient Analysis `tran': time = (0 s -> 10 ns)
************************************************

Opening the PSFXL file ../psf/tran.tran.tran ...
Important parameter values:
    start = 0 s
    outputstart = 0 s
    stop = 10 ns
    step = 10 ps
    maxstep = 200 ps
    ic = all
    useprevic = no
    skipdc = no
    reltol = 1e-03
    abstol(V) = 1 uV
    abstol(I) = 1 pA
    temp = 27 C
    tnom = 27 C
    tempeffects = all
    errpreset = moderate
    method = traponly
    lteratio = 3.5
    relref = sigglobal
    cmin = 0 F
    gmin = 1 pS


Output and IC/nodeset summary:
                 save   5       (current)
                 save   18      (voltage)

    tran: time = 310 ps       (3.1 %), step = 160 ps        (1.6 %)
    tran: time = 910 ps       (9.1 %), step = 200 ps          (2 %)
    tran: time = 1.31 ns     (13.1 %), step = 200 ps          (2 %)
    tran: time = 1.91 ns     (19.1 %), step = 200 ps          (2 %)
    tran: time = 2.31 ns     (23.1 %), step = 200 ps          (2 %)
    tran: time = 2.91 ns     (29.1 %), step = 200 ps          (2 %)
    tran: time = 3.31 ns     (33.1 %), step = 200 ps          (2 %)
    tran: time = 3.91 ns     (39.1 %), step = 200 ps          (2 %)
    tran: time = 4.31 ns     (43.1 %), step = 200 ps          (2 %)
    tran: time = 4.91 ns     (49.1 %), step = 200 ps          (2 %)
    tran: time = 5.31 ns     (53.1 %), step = 200 ps          (2 %)
    tran: time = 5.91 ns     (59.1 %), step = 200 ps          (2 %)
    tran: time = 6.31 ns     (63.1 %), step = 200 ps          (2 %)
    tran: time = 6.91 ns     (69.1 %), step = 200 ps          (2 %)
    tran: time = 7.31 ns     (73.1 %), step = 200 ps          (2 %)
    tran: time = 7.91 ns     (79.1 %), step = 200 ps          (2 %)
    tran: time = 8.31 ns     (83.1 %), step = 200 ps          (2 %)
    tran: time = 8.91 ns     (89.1 %), step = 200 ps          (2 %)
    tran: time = 9.31 ns     (93.1 %), step = 200 ps          (2 %)
    tran: time = 9.855 ns    (98.6 %), step = 145 ps       (1.45 %)
Number of accepted tran steps =             54

Maximum value achieved for any signal of each quantity: 
V: V(net4) = 1 V
I: I(V4:p) = 0 A
If your circuit contains signals of the same quantity that are vastly different in size (such as high voltage circuitry combined with low voltage control circuitry), you should consider specifying global option `bin_relref=yes'.

~~~~~~~~~~~~~~~~~~~~~~~~~~~~~~~~~
Post-Transient Simulation Summary
~~~~~~~~~~~~~~~~~~~~~~~~~~~~~~~~~
   -   To further speed up simulation, consider
          add ++aps on command line
~~~~~~~~~~~~~~~~~~~~~~~~~~~~~~~~~


During simulation, the CPU load for active processors is :
        Spectre  0 (15.9 %)      1 (1.2 %)       2 (19.6 %)      4 (1.9 %)
                 8 (1.4 %)      10 (3.9 %)      18 (5.8 %)      19 (2.6 %)
                24 (9.6 %)      26 (9.9 %)      
        Other   
Initial condition solution time: CPU = 1 ms, elapsed = 1.17183 ms.
Intrinsic tran analysis time:    CPU = 21.997 ms, elapsed = 27.6761 ms.
Total time required for tran analysis `tran': CPU = 26.996 ms, elapsed = 48.0061 ms.
Time accumulated: CPU = 1.05784 s, elapsed = 8.22056 s.
Peak resident memory used = 45.8 Mbytes.

finalTimeOP: writing operating point information to rawfile.

Opening the PSF file ../psf/finalTimeOP.info ...
modelParameter: writing model parameter values to rawfile.

Opening the PSF file ../psf/modelParameter.info ...
element: writing instance parameter values to rawfile.

Opening the PSF file ../psf/element.info ...
outputParameter: writing output parameter values to rawfile.

Opening the PSF file ../psf/outputParameter.info ...
designParamVals: writing netlist parameters to rawfile.

Opening the PSFASCII file ../psf/designParamVals.info ...
primitives: writing primitives to rawfile.

Opening the PSFASCII file ../psf/primitives.info.primitives ...
subckts: writing subcircuits to rawfile.

Opening the PSFASCII file ../psf/subckts.info.subckts ...

Warning from spectre.
    WARNING (CMI-2419): gpdk090_pmos1v: `imax' = 1 A is larger than `imelt' = 10 mA.  `imelt' is increased to `imax'.
    WARNING (CMI-2477): I0.PM0: `Rds' = 8.21053 uOhm is less than 0.001. Set to 0.
    WARNING (CMI-2477): I0.PM5: `Rds' = 17.3333 uOhm is less than 0.001. Set to 0.
    WARNING (CMI-2477): I0.PM10: `Rds' = 5.45455 uOhm is less than 0.001. Set to 0.
    WARNING (CMI-2477): I0.PM13: `Rds' = 10.0645 uOhm is less than 0.001. Set to 0.
    WARNING (CMI-2419): gpdk090_nmos1v: `imax' = 1 A is larger than `imelt' = 10 mA.  `imelt' is increased to `imax'.
    WARNING (SPECTRE-16707): Only tran supports psfxl format, result of other analyses will be in psfbin format.


************************************************
Transient Analysis `tran': time = (0 s -> 10 ns)
************************************************

Opening the PSFXL file ../psf/tran.tran.tran ...
Important parameter values:
    start = 0 s
    outputstart = 0 s
    stop = 10 ns
    step = 10 ps
    maxstep = 200 ps
    ic = all
    useprevic = no
    skipdc = no
    reltol = 1e-03
    abstol(V) = 1 uV
    abstol(I) = 1 pA
    temp = 27 C
    tnom = 27 C
    tempeffects = all
    errpreset = moderate
    method = traponly
    lteratio = 3.5
    relref = sigglobal
    cmin = 0 F
    gmin = 1 pS


Output and IC/nodeset summary:
                 save   5       (current)
                 save   18      (voltage)

    tran: time = 310 ps       (3.1 %), step = 160 ps        (1.6 %)
    tran: time = 910 ps       (9.1 %), step = 200 ps          (2 %)
    tran: time = 1.31 ns     (13.1 %), step = 200 ps          (2 %)
    tran: time = 1.91 ns     (19.1 %), step = 200 ps          (2 %)
    tran: time = 2.31 ns     (23.1 %), step = 200 ps          (2 %)
    tran: time = 2.91 ns     (29.1 %), step = 200 ps          (2 %)
    tran: time = 3.31 ns     (33.1 %), step = 200 ps          (2 %)
    tran: time = 3.91 ns     (39.1 %), step = 200 ps          (2 %)
    tran: time = 4.31 ns     (43.1 %), step = 200 ps          (2 %)
    tran: time = 4.91 ns     (49.1 %), step = 200 ps          (2 %)
    tran: time = 5.31 ns     (53.1 %), step = 200 ps          (2 %)
    tran: time = 5.91 ns     (59.1 %), step = 200 ps          (2 %)
    tran: time = 6.31 ns     (63.1 %), step = 200 ps          (2 %)
    tran: time = 6.91 ns     (69.1 %), step = 200 ps          (2 %)
    tran: time = 7.31 ns     (73.1 %), step = 200 ps          (2 %)
    tran: time = 7.91 ns     (79.1 %), step = 200 ps          (2 %)
    tran: time = 8.31 ns     (83.1 %), step = 200 ps          (2 %)
    tran: time = 8.91 ns     (89.1 %), step = 200 ps          (2 %)
    tran: time = 9.31 ns     (93.1 %), step = 200 ps          (2 %)
    tran: time = 9.855 ns    (98.6 %), step = 145 ps       (1.45 %)
Number of accepted tran steps =             54

Maximum value achieved for any signal of each quantity: 
V: V(net3) = 500 mV
I: I(V4:p) = 0 A
If your circuit contains signals of the same quantity that are vastly different in size (such as high voltage circuitry combined with low voltage control circuitry), you should consider specifying global option `bin_relref=yes'.

~~~~~~~~~~~~~~~~~~~~~~~~~~~~~~~~~
Post-Transient Simulation Summary
~~~~~~~~~~~~~~~~~~~~~~~~~~~~~~~~~
   -   To further speed up simulation, consider
          add ++aps on command line
~~~~~~~~~~~~~~~~~~~~~~~~~~~~~~~~~


During simulation, the CPU load for active processors is :
        Spectre  0 (15.0 %)      1 (1.4 %)       2 (18.9 %)      4 (1.7 %)
                 8 (1.2 %)      10 (3.7 %)      18 (6.2 %)      19 (2.4 %)
                24 (9.2 %)      26 (10.9 %)     
        Other   
Initial condition solution time: CPU = 2 ms, elapsed = 1.62601 ms.
Intrinsic tran analysis time:    CPU = 14.998 ms, elapsed = 20.685 ms.
Total time required for tran analysis `tran': CPU = 21.996 ms, elapsed = 38.6648 ms.
Time accumulated: CPU = 1.13083 s, elapsed = 9.03337 s.
Peak resident memory used = 46 Mbytes.

finalTimeOP: writing operating point information to rawfile.

Opening the PSF file ../psf/finalTimeOP.info ...
modelParameter: writing model parameter values to rawfile.

Opening the PSF file ../psf/modelParameter.info ...
element: writing instance parameter values to rawfile.

Opening the PSF file ../psf/element.info ...
outputParameter: writing output parameter values to rawfile.

Opening the PSF file ../psf/outputParameter.info ...
designParamVals: writing netlist parameters to rawfile.

Opening the PSFASCII file ../psf/designParamVals.info ...
primitives: writing primitives to rawfile.

Opening the PSFASCII file ../psf/primitives.info.primitives ...
subckts: writing subcircuits to rawfile.

Opening the PSFASCII file ../psf/subckts.info.subckts ...

Warning from spectre.
    WARNING (CMI-2419): gpdk090_pmos1v: `imax' = 1 A is larger than `imelt' = 10 mA.  `imelt' is increased to `imax'.
    WARNING (CMI-2477): I0.PM13: `Rds' = 10.0645 uOhm is less than 0.001. Set to 0.
    WARNING (CMI-2477): I0.PM12: `Rds' = 5.45455 uOhm is less than 0.001. Set to 0.
    WARNING (CMI-2477): I0.PM9: `Rds' = 8.21053 uOhm is less than 0.001. Set to 0.
    WARNING (CMI-2477): I0.PM5: `Rds' = 17.3333 uOhm is less than 0.001. Set to 0.
    WARNING (CMI-2419): gpdk090_nmos1v: `imax' = 1 A is larger than `imelt' = 10 mA.  `imelt' is increased to `imax'.
    WARNING (SPECTRE-16707): Only tran supports psfxl format, result of other analyses will be in psfbin format.


************************************************
Transient Analysis `tran': time = (0 s -> 10 ns)
************************************************

Opening the PSFXL file ../psf/tran.tran.tran ...
Important parameter values:
    start = 0 s
    outputstart = 0 s
    stop = 10 ns
    step = 10 ps
    maxstep = 200 ps
    ic = all
    useprevic = no
    skipdc = no
    reltol = 1e-03
    abstol(V) = 1 uV
    abstol(I) = 1 pA
    temp = 27 C
    tnom = 27 C
    tempeffects = all
    errpreset = moderate
    method = traponly
    lteratio = 3.5
    relref = sigglobal
    cmin = 0 F
    gmin = 1 pS


Output and IC/nodeset summary:
                 save   5       (current)
                 save   18      (voltage)

    tran: time = 310 ps       (3.1 %), step = 160 ps        (1.6 %)
    tran: time = 910 ps       (9.1 %), step = 200 ps          (2 %)
    tran: time = 1.31 ns     (13.1 %), step = 200 ps          (2 %)
    tran: time = 1.91 ns     (19.1 %), step = 200 ps          (2 %)
    tran: time = 2.31 ns     (23.1 %), step = 200 ps          (2 %)
    tran: time = 2.91 ns     (29.1 %), step = 200 ps          (2 %)
    tran: time = 3.31 ns     (33.1 %), step = 200 ps          (2 %)
    tran: time = 3.91 ns     (39.1 %), step = 200 ps          (2 %)
    tran: time = 4.31 ns     (43.1 %), step = 200 ps          (2 %)
    tran: time = 4.91 ns     (49.1 %), step = 200 ps          (2 %)
    tran: time = 5.31 ns     (53.1 %), step = 200 ps          (2 %)
    tran: time = 5.91 ns     (59.1 %), step = 200 ps          (2 %)
    tran: time = 6.31 ns     (63.1 %), step = 200 ps          (2 %)
    tran: time = 6.91 ns     (69.1 %), step = 200 ps          (2 %)
    tran: time = 7.31 ns     (73.1 %), step = 200 ps          (2 %)
    tran: time = 7.91 ns     (79.1 %), step = 200 ps          (2 %)
    tran: time = 8.31 ns     (83.1 %), step = 200 ps          (2 %)
    tran: time = 8.91 ns     (89.1 %), step = 200 ps          (2 %)
    tran: time = 9.31 ns     (93.1 %), step = 200 ps          (2 %)
    tran: time = 9.855 ns    (98.6 %), step = 145 ps       (1.45 %)
Number of accepted tran steps =             54

Maximum value achieved for any signal of each quantity: 
V: V(net3) = 500 mV
I: I(V4:p) = 0 A
If your circuit contains signals of the same quantity that are vastly different in size (such as high voltage circuitry combined with low voltage control circuitry), you should consider specifying global option `bin_relref=yes'.

~~~~~~~~~~~~~~~~~~~~~~~~~~~~~~~~~
Post-Transient Simulation Summary
~~~~~~~~~~~~~~~~~~~~~~~~~~~~~~~~~
   -   To further speed up simulation, consider
          add ++aps on command line
~~~~~~~~~~~~~~~~~~~~~~~~~~~~~~~~~


During simulation, the CPU load for active processors is :
        Spectre  0 (14.5 %)      1 (1.3 %)       2 (18.4 %)      4 (1.5 %)
                 8 (1.1 %)      10 (3.5 %)      18 (5.8 %)      19 (2.3 %)
                24 (8.7 %)      26 (9.8 %)      
        Other   
Initial condition solution time: CPU = 2 ms, elapsed = 1.70922 ms.
Intrinsic tran analysis time:    CPU = 21.996 ms, elapsed = 28.141 ms.
Total time required for tran analysis `tran': CPU = 27.995 ms, elapsed = 37.5681 ms.
Time accumulated: CPU = 1.20881 s, elapsed = 10.2771 s.
Peak resident memory used = 46.2 Mbytes.

finalTimeOP: writing operating point information to rawfile.

Opening the PSF file ../psf/finalTimeOP.info ...
modelParameter: writing model parameter values to rawfile.

Opening the PSF file ../psf/modelParameter.info ...
element: writing instance parameter values to rawfile.

Opening the PSF file ../psf/element.info ...
outputParameter: writing output parameter values to rawfile.

Opening the PSF file ../psf/outputParameter.info ...
designParamVals: writing netlist parameters to rawfile.

Opening the PSFASCII file ../psf/designParamVals.info ...
primitives: writing primitives to rawfile.

Opening the PSFASCII file ../psf/primitives.info.primitives ...
subckts: writing subcircuits to rawfile.

Opening the PSFASCII file ../psf/subckts.info.subckts ...

Warning from spectre.
    WARNING (CMI-2419): gpdk090_pmos1v: `imax' = 1 A is larger than `imelt' = 10 mA.  `imelt' is increased to `imax'.
    WARNING (CMI-2477): I0.PM13: `Rds' = 10.0645 uOhm is less than 0.001. Set to 0.
    WARNING (CMI-2477): I0.PM12: `Rds' = 5.45455 uOhm is less than 0.001. Set to 0.
    WARNING (CMI-2477): I0.PM9: `Rds' = 8.21053 uOhm is less than 0.001. Set to 0.
    WARNING (CMI-2477): I0.PM5: `Rds' = 17.3333 uOhm is less than 0.001. Set to 0.
    WARNING (CMI-2419): gpdk090_nmos1v: `imax' = 1 A is larger than `imelt' = 10 mA.  `imelt' is increased to `imax'.
    WARNING (SPECTRE-16707): Only tran supports psfxl format, result of other analyses will be in psfbin format.


************************************************
Transient Analysis `tran': time = (0 s -> 10 ns)
************************************************

Opening the PSFXL file ../psf/tran.tran.tran ...
Important parameter values:
    start = 0 s
    outputstart = 0 s
    stop = 10 ns
    step = 10 ps
    maxstep = 200 ps
    ic = all
    useprevic = no
    skipdc = no
    reltol = 1e-03
    abstol(V) = 1 uV
    abstol(I) = 1 pA
    temp = 27 C
    tnom = 27 C
    tempeffects = all
    errpreset = moderate
    method = traponly
    lteratio = 3.5
    relref = sigglobal
    cmin = 0 F
    gmin = 1 pS


Output and IC/nodeset summary:
                 save   5       (current)
                 save   18      (voltage)

    tran: time = 310 ps       (3.1 %), step = 160 ps        (1.6 %)
    tran: time = 910 ps       (9.1 %), step = 200 ps          (2 %)
    tran: time = 1.31 ns     (13.1 %), step = 200 ps          (2 %)
    tran: time = 1.91 ns     (19.1 %), step = 200 ps          (2 %)
    tran: time = 2.31 ns     (23.1 %), step = 200 ps          (2 %)
    tran: time = 2.91 ns     (29.1 %), step = 200 ps          (2 %)
    tran: time = 3.31 ns     (33.1 %), step = 200 ps          (2 %)
    tran: time = 3.91 ns     (39.1 %), step = 200 ps          (2 %)
    tran: time = 4.31 ns     (43.1 %), step = 200 ps          (2 %)
    tran: time = 4.91 ns     (49.1 %), step = 200 ps          (2 %)
    tran: time = 5.31 ns     (53.1 %), step = 200 ps          (2 %)
    tran: time = 5.91 ns     (59.1 %), step = 200 ps          (2 %)
    tran: time = 6.31 ns     (63.1 %), step = 200 ps          (2 %)
    tran: time = 6.91 ns     (69.1 %), step = 200 ps          (2 %)
    tran: time = 7.31 ns     (73.1 %), step = 200 ps          (2 %)
    tran: time = 7.91 ns     (79.1 %), step = 200 ps          (2 %)
    tran: time = 8.31 ns     (83.1 %), step = 200 ps          (2 %)
    tran: time = 8.91 ns     (89.1 %), step = 200 ps          (2 %)
    tran: time = 9.31 ns     (93.1 %), step = 200 ps          (2 %)
    tran: time = 9.855 ns    (98.6 %), step = 145 ps       (1.45 %)
Number of accepted tran steps =             54

Maximum value achieved for any signal of each quantity: 
V: V(net4) = 500 mV
I: I(V4:p) = 0 A
If your circuit contains signals of the same quantity that are vastly different in size (such as high voltage circuitry combined with low voltage control circuitry), you should consider specifying global option `bin_relref=yes'.

~~~~~~~~~~~~~~~~~~~~~~~~~~~~~~~~~
Post-Transient Simulation Summary
~~~~~~~~~~~~~~~~~~~~~~~~~~~~~~~~~
   -   To further speed up simulation, consider
          add ++aps on command line
~~~~~~~~~~~~~~~~~~~~~~~~~~~~~~~~~


During simulation, the CPU load for active processors is :
        Spectre  0 (14.5 %)      1 (1.3 %)       2 (18.1 %)      4 (1.3 %)
                10 (3.4 %)      12 (1.6 %)      18 (5.5 %)      19 (2.3 %)
                24 (8.4 %)      26 (8.9 %)      
        Other   
Initial condition solution time: CPU = 1 ms, elapsed = 1.6861 ms.
Intrinsic tran analysis time:    CPU = 17.996 ms, elapsed = 23.469 ms.
Total time required for tran analysis `tran': CPU = 23.996 ms, elapsed = 34.811 ms.
Time accumulated: CPU = 1.2938 s, elapsed = 11.3554 s.
Peak resident memory used = 46.4 Mbytes.

finalTimeOP: writing operating point information to rawfile.

Opening the PSF file ../psf/finalTimeOP.info ...
modelParameter: writing model parameter values to rawfile.

Opening the PSF file ../psf/modelParameter.info ...
element: writing instance parameter values to rawfile.

Opening the PSF file ../psf/element.info ...
outputParameter: writing output parameter values to rawfile.

Opening the PSF file ../psf/outputParameter.info ...
designParamVals: writing netlist parameters to rawfile.

Opening the PSFASCII file ../psf/designParamVals.info ...
primitives: writing primitives to rawfile.

Opening the PSFASCII file ../psf/primitives.info.primitives ...
subckts: writing subcircuits to rawfile.

Opening the PSFASCII file ../psf/subckts.info.subckts ...

Warning from spectre.
    WARNING (CMI-2419): gpdk090_pmos1v: `imax' = 1 A is larger than `imelt' = 10 mA.  `imelt' is increased to `imax'.
    WARNING (CMI-2477): I0.PM13: `Rds' = 10.0645 uOhm is less than 0.001. Set to 0.
    WARNING (CMI-2477): I0.PM12: `Rds' = 5.45455 uOhm is less than 0.001. Set to 0.
    WARNING (CMI-2477): I0.PM9: `Rds' = 8.21053 uOhm is less than 0.001. Set to 0.
    WARNING (CMI-2477): I0.PM5: `Rds' = 17.3333 uOhm is less than 0.001. Set to 0.
    WARNING (CMI-2419): gpdk090_nmos1v: `imax' = 1 A is larger than `imelt' = 10 mA.  `imelt' is increased to `imax'.
    WARNING (SPECTRE-16707): Only tran supports psfxl format, result of other analyses will be in psfbin format.


************************************************
Transient Analysis `tran': time = (0 s -> 10 ns)
************************************************

Opening the PSFXL file ../psf/tran.tran.tran ...
Important parameter values:
    start = 0 s
    outputstart = 0 s
    stop = 10 ns
    step = 10 ps
    maxstep = 200 ps
    ic = all
    useprevic = no
    skipdc = no
    reltol = 1e-03
    abstol(V) = 1 uV
    abstol(I) = 1 pA
    temp = 27 C
    tnom = 27 C
    tempeffects = all
    errpreset = moderate
    method = traponly
    lteratio = 3.5
    relref = sigglobal
    cmin = 0 F
    gmin = 1 pS


Output and IC/nodeset summary:
                 save   5       (current)
                 save   18      (voltage)

    tran: time = 310 ps       (3.1 %), step = 160 ps        (1.6 %)
    tran: time = 910 ps       (9.1 %), step = 200 ps          (2 %)
    tran: time = 1.31 ns     (13.1 %), step = 200 ps          (2 %)
    tran: time = 1.91 ns     (19.1 %), step = 200 ps          (2 %)
    tran: time = 2.31 ns     (23.1 %), step = 200 ps          (2 %)
    tran: time = 2.91 ns     (29.1 %), step = 200 ps          (2 %)
    tran: time = 3.31 ns     (33.1 %), step = 200 ps          (2 %)
    tran: time = 3.91 ns     (39.1 %), step = 200 ps          (2 %)
    tran: time = 4.31 ns     (43.1 %), step = 200 ps          (2 %)
    tran: time = 4.91 ns     (49.1 %), step = 200 ps          (2 %)
    tran: time = 5.31 ns     (53.1 %), step = 200 ps          (2 %)
    tran: time = 5.91 ns     (59.1 %), step = 200 ps          (2 %)
    tran: time = 6.31 ns     (63.1 %), step = 200 ps          (2 %)
    tran: time = 6.91 ns     (69.1 %), step = 200 ps          (2 %)
    tran: time = 7.31 ns     (73.1 %), step = 200 ps          (2 %)
    tran: time = 7.91 ns     (79.1 %), step = 200 ps          (2 %)
    tran: time = 8.31 ns     (83.1 %), step = 200 ps          (2 %)
    tran: time = 8.91 ns     (89.1 %), step = 200 ps          (2 %)
    tran: time = 9.31 ns     (93.1 %), step = 200 ps          (2 %)
    tran: time = 9.855 ns    (98.6 %), step = 145 ps       (1.45 %)
Number of accepted tran steps =             54

Maximum value achieved for any signal of each quantity: 
V: V(net4) = 750 mV
I: I(V4:p) = 0 A
If your circuit contains signals of the same quantity that are vastly different in size (such as high voltage circuitry combined with low voltage control circuitry), you should consider specifying global option `bin_relref=yes'.

~~~~~~~~~~~~~~~~~~~~~~~~~~~~~~~~~
Post-Transient Simulation Summary
~~~~~~~~~~~~~~~~~~~~~~~~~~~~~~~~~
   -   To further speed up simulation, consider
          add ++aps on command line
~~~~~~~~~~~~~~~~~~~~~~~~~~~~~~~~~


During simulation, the CPU load for active processors is :
        Spectre  0 (16.2 %)      1 (1.2 %)       2 (18.2 %)      4 (1.5 %)
                10 (3.2 %)      12 (1.5 %)      18 (5.5 %)      19 (2.3 %)
                24 (8.4 %)      26 (8.3 %)      
        Other   
Initial condition solution time: CPU = 1.999 ms, elapsed = 1.69086 ms.
Intrinsic tran analysis time:    CPU = 19.997 ms, elapsed = 24.5969 ms.
Total time required for tran analysis `tran': CPU = 24.996 ms, elapsed = 42.208 ms.
Time accumulated: CPU = 1.36879 s, elapsed = 12.1203 s.
Peak resident memory used = 46.7 Mbytes.

finalTimeOP: writing operating point information to rawfile.

Opening the PSF file ../psf/finalTimeOP.info ...
modelParameter: writing model parameter values to rawfile.

Opening the PSF file ../psf/modelParameter.info ...
element: writing instance parameter values to rawfile.

Opening the PSF file ../psf/element.info ...
outputParameter: writing output parameter values to rawfile.

Opening the PSF file ../psf/outputParameter.info ...
designParamVals: writing netlist parameters to rawfile.

Opening the PSFASCII file ../psf/designParamVals.info ...
primitives: writing primitives to rawfile.

Opening the PSFASCII file ../psf/primitives.info.primitives ...
subckts: writing subcircuits to rawfile.

Opening the PSFASCII file ../psf/subckts.info.subckts ...

Warning from spectre.
    WARNING (CMI-2419): gpdk090_pmos1v: `imax' = 1 A is larger than `imelt' = 10 mA.  `imelt' is increased to `imax'.
    WARNING (CMI-2477): I0.PM13: `Rds' = 10.0645 uOhm is less than 0.001. Set to 0.
    WARNING (CMI-2477): I0.PM12: `Rds' = 5.45455 uOhm is less than 0.001. Set to 0.
    WARNING (CMI-2477): I0.PM9: `Rds' = 8.21053 uOhm is less than 0.001. Set to 0.
    WARNING (CMI-2477): I0.PM5: `Rds' = 17.3333 uOhm is less than 0.001. Set to 0.
    WARNING (CMI-2419): gpdk090_nmos1v: `imax' = 1 A is larger than `imelt' = 10 mA.  `imelt' is increased to `imax'.
    WARNING (SPECTRE-16707): Only tran supports psfxl format, result of other analyses will be in psfbin format.


************************************************
Transient Analysis `tran': time = (0 s -> 10 ns)
************************************************

Opening the PSFXL file ../psf/tran.tran.tran ...
Important parameter values:
    start = 0 s
    outputstart = 0 s
    stop = 10 ns
    step = 10 ps
    maxstep = 200 ps
    ic = all
    useprevic = no
    skipdc = no
    reltol = 1e-03
    abstol(V) = 1 uV
    abstol(I) = 1 pA
    temp = 27 C
    tnom = 27 C
    tempeffects = all
    errpreset = moderate
    method = traponly
    lteratio = 3.5
    relref = sigglobal
    cmin = 0 F
    gmin = 1 pS


Output and IC/nodeset summary:
                 save   5       (current)
                 save   18      (voltage)

    tran: time = 310 ps       (3.1 %), step = 160 ps        (1.6 %)
    tran: time = 910 ps       (9.1 %), step = 200 ps          (2 %)
    tran: time = 1.31 ns     (13.1 %), step = 200 ps          (2 %)
    tran: time = 1.91 ns     (19.1 %), step = 200 ps          (2 %)
    tran: time = 2.31 ns     (23.1 %), step = 200 ps          (2 %)
    tran: time = 2.91 ns     (29.1 %), step = 200 ps          (2 %)
    tran: time = 3.31 ns     (33.1 %), step = 200 ps          (2 %)
    tran: time = 3.91 ns     (39.1 %), step = 200 ps          (2 %)
    tran: time = 4.31 ns     (43.1 %), step = 200 ps          (2 %)
    tran: time = 4.91 ns     (49.1 %), step = 200 ps          (2 %)
    tran: time = 5.31 ns     (53.1 %), step = 200 ps          (2 %)
    tran: time = 5.91 ns     (59.1 %), step = 200 ps          (2 %)
    tran: time = 6.31 ns     (63.1 %), step = 200 ps          (2 %)
    tran: time = 6.91 ns     (69.1 %), step = 200 ps          (2 %)
    tran: time = 7.31 ns     (73.1 %), step = 200 ps          (2 %)
    tran: time = 7.91 ns     (79.1 %), step = 200 ps          (2 %)
    tran: time = 8.31 ns     (83.1 %), step = 200 ps          (2 %)
    tran: time = 8.91 ns     (89.1 %), step = 200 ps          (2 %)
    tran: time = 9.31 ns     (93.1 %), step = 200 ps          (2 %)
    tran: time = 9.855 ns    (98.6 %), step = 145 ps       (1.45 %)
Number of accepted tran steps =             54

Maximum value achieved for any signal of each quantity: 
V: V(net4) = 1 V
I: I(V4:p) = 0 A
If your circuit contains signals of the same quantity that are vastly different in size (such as high voltage circuitry combined with low voltage control circuitry), you should consider specifying global option `bin_relref=yes'.

~~~~~~~~~~~~~~~~~~~~~~~~~~~~~~~~~
Post-Transient Simulation Summary
~~~~~~~~~~~~~~~~~~~~~~~~~~~~~~~~~
   -   To further speed up simulation, consider
          add ++aps on command line
~~~~~~~~~~~~~~~~~~~~~~~~~~~~~~~~~


During simulation, the CPU load for active processors is :
        Spectre  0 (16.1 %)      1 (1.2 %)       2 (18.2 %)      4 (1.4 %)
                10 (3.1 %)      12 (1.4 %)      18 (5.4 %)      19 (2.3 %)
                24 (8.4 %)      26 (7.9 %)      
        Other   
Initial condition solution time: CPU = 2 ms, elapsed = 1.72186 ms.
Intrinsic tran analysis time:    CPU = 18.997 ms, elapsed = 24.0541 ms.
Total time required for tran analysis `tran': CPU = 24.996 ms, elapsed = 33.911 ms.
Time accumulated: CPU = 1.44178 s, elapsed = 12.9283 s.
Peak resident memory used = 46.9 Mbytes.

finalTimeOP: writing operating point information to rawfile.

Opening the PSF file ../psf/finalTimeOP.info ...
modelParameter: writing model parameter values to rawfile.

Opening the PSF file ../psf/modelParameter.info ...
element: writing instance parameter values to rawfile.

Opening the PSF file ../psf/element.info ...
outputParameter: writing output parameter values to rawfile.

Opening the PSF file ../psf/outputParameter.info ...
designParamVals: writing netlist parameters to rawfile.

Opening the PSFASCII file ../psf/designParamVals.info ...
primitives: writing primitives to rawfile.

Opening the PSFASCII file ../psf/primitives.info.primitives ...
subckts: writing subcircuits to rawfile.

Opening the PSFASCII file ../psf/subckts.info.subckts ...

Warning from spectre.
    WARNING (CMI-2419): gpdk090_pmos1v: `imax' = 1 A is larger than `imelt' = 10 mA.  `imelt' is increased to `imax'.
    WARNING (CMI-2477): I0.PM0: `Rds' = 8.21053 uOhm is less than 0.001. Set to 0.
    WARNING (CMI-2477): I0.PM5: `Rds' = 17.3333 uOhm is less than 0.001. Set to 0.
    WARNING (CMI-2477): I0.PM10: `Rds' = 5.45455 uOhm is less than 0.001. Set to 0.
    WARNING (CMI-2477): I0.PM13: `Rds' = 10.0645 uOhm is less than 0.001. Set to 0.
    WARNING (CMI-2419): gpdk090_nmos1v: `imax' = 1 A is larger than `imelt' = 10 mA.  `imelt' is increased to `imax'.
    WARNING (SPECTRE-16707): Only tran supports psfxl format, result of other analyses will be in psfbin format.


************************************************
Transient Analysis `tran': time = (0 s -> 10 ns)
************************************************

Opening the PSFXL file ../psf/tran.tran.tran ...
Important parameter values:
    start = 0 s
    outputstart = 0 s
    stop = 10 ns
    step = 10 ps
    maxstep = 200 ps
    ic = all
    useprevic = no
    skipdc = no
    reltol = 1e-03
    abstol(V) = 1 uV
    abstol(I) = 1 pA
    temp = 27 C
    tnom = 27 C
    tempeffects = all
    errpreset = moderate
    method = traponly
    lteratio = 3.5
    relref = sigglobal
    cmin = 0 F
    gmin = 1 pS


Output and IC/nodeset summary:
                 save   5       (current)
                 save   18      (voltage)

    tran: time = 310 ps       (3.1 %), step = 160 ps        (1.6 %)
    tran: time = 910 ps       (9.1 %), step = 200 ps          (2 %)
    tran: time = 1.31 ns     (13.1 %), step = 200 ps          (2 %)
    tran: time = 1.91 ns     (19.1 %), step = 200 ps          (2 %)
    tran: time = 2.31 ns     (23.1 %), step = 200 ps          (2 %)
    tran: time = 2.91 ns     (29.1 %), step = 200 ps          (2 %)
    tran: time = 3.31 ns     (33.1 %), step = 200 ps          (2 %)
    tran: time = 3.91 ns     (39.1 %), step = 200 ps          (2 %)
    tran: time = 4.31 ns     (43.1 %), step = 200 ps          (2 %)
    tran: time = 4.91 ns     (49.1 %), step = 200 ps          (2 %)
[...]

Opening the PSF file ../psf/modelParameter.info ...
element: writing instance parameter values to rawfile.

Opening the PSF file ../psf/element.info ...
outputParameter: writing output parameter values to rawfile.

Opening the PSF file ../psf/outputParameter.info ...
designParamVals: writing netlist parameters to rawfile.

Opening the PSFASCII file ../psf/designParamVals.info ...
primitives: writing primitives to rawfile.

Opening the PSFASCII file ../psf/primitives.info.primitives ...
subckts: writing subcircuits to rawfile.

Opening the PSFASCII file ../psf/subckts.info.subckts ...

Warning from spectre.
    WARNING (CMI-2419): gpdk090_pmos1v: `imax' = 1 A is larger than `imelt' = 10 mA.  `imelt' is increased to `imax'.
    WARNING (CMI-2477): I0.PM13: `Rds' = 10.0645 uOhm is less than 0.001. Set to 0.
    WARNING (CMI-2477): I0.PM12: `Rds' = 5.45455 uOhm is less than 0.001. Set to 0.
    WARNING (CMI-2477): I0.PM9: `Rds' = 8.21053 uOhm is less than 0.001. Set to 0.
    WARNING (CMI-2477): I0.PM5: `Rds' = 17.3333 uOhm is less than 0.001. Set to 0.
    WARNING (CMI-2419): gpdk090_nmos1v: `imax' = 1 A is larger than `imelt' = 10 mA.  `imelt' is increased to `imax'.
    WARNING (SPECTRE-16707): Only tran supports psfxl format, result of other analyses will be in psfbin format.


************************************************
Transient Analysis `tran': time = (0 s -> 10 ns)
************************************************

Opening the PSFXL file ../psf/tran.tran.tran ...
Important parameter values:
    start = 0 s
    outputstart = 0 s
    stop = 10 ns
    step = 10 ps
    maxstep = 200 ps
    ic = all
    useprevic = no
    skipdc = no
    reltol = 1e-03
    abstol(V) = 1 uV
    abstol(I) = 1 pA
    temp = 27 C
    tnom = 27 C
    tempeffects = all
    errpreset = moderate
    method = traponly
    lteratio = 3.5
    relref = sigglobal
    cmin = 0 F
    gmin = 1 pS


Output and IC/nodeset summary:
                 save   5       (current)
                 save   18      (voltage)

    tran: time = 310 ps       (3.1 %), step = 160 ps        (1.6 %)
    tran: time = 910 ps       (9.1 %), step = 200 ps          (2 %)
    tran: time = 1.31 ns     (13.1 %), step = 200 ps          (2 %)
    tran: time = 1.91 ns     (19.1 %), step = 200 ps          (2 %)
    tran: time = 2.31 ns     (23.1 %), step = 200 ps          (2 %)
    tran: time = 2.91 ns     (29.1 %), step = 200 ps          (2 %)
    tran: time = 3.31 ns     (33.1 %), step = 200 ps          (2 %)
    tran: time = 3.91 ns     (39.1 %), step = 200 ps          (2 %)
    tran: time = 4.31 ns     (43.1 %), step = 200 ps          (2 %)
    tran: time = 4.91 ns     (49.1 %), step = 200 ps          (2 %)
    tran: time = 5.31 ns     (53.1 %), step = 200 ps          (2 %)
    tran: time = 5.91 ns     (59.1 %), step = 200 ps          (2 %)
    tran: time = 6.31 ns     (63.1 %), step = 200 ps          (2 %)
    tran: time = 6.91 ns     (69.1 %), step = 200 ps          (2 %)
    tran: time = 7.31 ns     (73.1 %), step = 200 ps          (2 %)
    tran: time = 7.91 ns     (79.1 %), step = 200 ps          (2 %)
    tran: time = 8.31 ns     (83.1 %), step = 200 ps          (2 %)
    tran: time = 8.91 ns     (89.1 %), step = 200 ps          (2 %)
    tran: time = 9.31 ns     (93.1 %), step = 200 ps          (2 %)
    tran: time = 9.855 ns    (98.6 %), step = 145 ps       (1.45 %)
Number of accepted tran steps =             54

Maximum value achieved for any signal of each quantity: 
V: V(net3) = 1 V
I: I(V4:p) = 0 A
If your circuit contains signals of the same quantity that are vastly different in size (such as high voltage circuitry combined with low voltage control circuitry), you should consider specifying global option `bin_relref=yes'.

~~~~~~~~~~~~~~~~~~~~~~~~~~~~~~~~~
Post-Transient Simulation Summary
~~~~~~~~~~~~~~~~~~~~~~~~~~~~~~~~~
   -   To further speed up simulation, consider
          add ++aps on command line
~~~~~~~~~~~~~~~~~~~~~~~~~~~~~~~~~


During simulation, the CPU load for active processors is :
        Spectre  0 (11.7 %)      1 (1.1 %)       2 (12.7 %)      4 (1.1 %)
                10 (1.5 %)      16 (1.8 %)      18 (3.8 %)      19 (1.7 %)
                24 (6.2 %)      26 (4.0 %)      
        Other   
Initial condition solution time: CPU = 1 ms, elapsed = 1.0221 ms.
Intrinsic tran analysis time:    CPU = 16.997 ms, elapsed = 22.3429 ms.
Total time required for tran analysis `tran': CPU = 20.997 ms, elapsed = 31.4732 ms.
Time accumulated: CPU = 9.89649 s, elapsed = 164.669 s (2m  44.7s).
Peak resident memory used = 70.6 Mbytes.

finalTimeOP: writing operating point information to rawfile.

Opening the PSF file ../psf/finalTimeOP.info ...
modelParameter: writing model parameter values to rawfile.

Opening the PSF file ../psf/modelParameter.info ...
element: writing instance parameter values to rawfile.

Opening the PSF file ../psf/element.info ...
outputParameter: writing output parameter values to rawfile.

Opening the PSF file ../psf/outputParameter.info ...
designParamVals: writing netlist parameters to rawfile.

Opening the PSFASCII file ../psf/designParamVals.info ...
primitives: writing primitives to rawfile.

Opening the PSFASCII file ../psf/primitives.info.primitives ...
subckts: writing subcircuits to rawfile.

Opening the PSFASCII file ../psf/subckts.info.subckts ...

Warning from spectre.
    WARNING (CMI-2419): gpdk090_pmos1v: `imax' = 1 A is larger than `imelt' = 10 mA.  `imelt' is increased to `imax'.
    WARNING (CMI-2477): I0.PM13: `Rds' = 10.0645 uOhm is less than 0.001. Set to 0.
    WARNING (CMI-2477): I0.PM12: `Rds' = 5.45455 uOhm is less than 0.001. Set to 0.
    WARNING (CMI-2477): I0.PM9: `Rds' = 8.21053 uOhm is less than 0.001. Set to 0.
    WARNING (CMI-2477): I0.PM5: `Rds' = 17.3333 uOhm is less than 0.001. Set to 0.
    WARNING (CMI-2419): gpdk090_nmos1v: `imax' = 1 A is larger than `imelt' = 10 mA.  `imelt' is increased to `imax'.
    WARNING (SPECTRE-16707): Only tran supports psfxl format, result of other analyses will be in psfbin format.


************************************************
Transient Analysis `tran': time = (0 s -> 10 ns)
************************************************

Opening the PSFXL file ../psf/tran.tran.tran ...
Important parameter values:
    start = 0 s
    outputstart = 0 s
    stop = 10 ns
    step = 10 ps
    maxstep = 200 ps
    ic = all
    useprevic = no
    skipdc = no
    reltol = 1e-03
    abstol(V) = 1 uV
    abstol(I) = 1 pA
    temp = 27 C
    tnom = 27 C
    tempeffects = all
    errpreset = moderate
    method = traponly
    lteratio = 3.5
    relref = sigglobal
    cmin = 0 F
    gmin = 1 pS


Output and IC/nodeset summary:
                 save   5       (current)
                 save   18      (voltage)

    tran: time = 310 ps       (3.1 %), step = 160 ps        (1.6 %)
    tran: time = 910 ps       (9.1 %), step = 200 ps          (2 %)
    tran: time = 1.31 ns     (13.1 %), step = 200 ps          (2 %)
    tran: time = 1.91 ns     (19.1 %), step = 200 ps          (2 %)
    tran: time = 2.31 ns     (23.1 %), step = 200 ps          (2 %)
    tran: time = 2.91 ns     (29.1 %), step = 200 ps          (2 %)
    tran: time = 3.31 ns     (33.1 %), step = 200 ps          (2 %)
    tran: time = 3.91 ns     (39.1 %), step = 200 ps          (2 %)
    tran: time = 4.31 ns     (43.1 %), step = 200 ps          (2 %)
    tran: time = 4.91 ns     (49.1 %), step = 200 ps          (2 %)
    tran: time = 5.31 ns     (53.1 %), step = 200 ps          (2 %)
    tran: time = 5.91 ns     (59.1 %), step = 200 ps          (2 %)
    tran: time = 6.31 ns     (63.1 %), step = 200 ps          (2 %)
    tran: time = 6.91 ns     (69.1 %), step = 200 ps          (2 %)
    tran: time = 7.31 ns     (73.1 %), step = 200 ps          (2 %)
    tran: time = 7.91 ns     (79.1 %), step = 200 ps          (2 %)
    tran: time = 8.31 ns     (83.1 %), step = 200 ps          (2 %)
    tran: time = 8.91 ns     (89.1 %), step = 200 ps          (2 %)
    tran: time = 9.31 ns     (93.1 %), step = 200 ps          (2 %)
    tran: time = 9.855 ns    (98.6 %), step = 145 ps       (1.45 %)
Number of accepted tran steps =             54

Maximum value achieved for any signal of each quantity: 
V: V(net3) = 1 V
I: I(V4:p) = 0 A
If your circuit contains signals of the same quantity that are vastly different in size (such as high voltage circuitry combined with low voltage control circuitry), you should consider specifying global option `bin_relref=yes'.

~~~~~~~~~~~~~~~~~~~~~~~~~~~~~~~~~
Post-Transient Simulation Summary
~~~~~~~~~~~~~~~~~~~~~~~~~~~~~~~~~
   -   To further speed up simulation, consider
          add ++aps on command line
~~~~~~~~~~~~~~~~~~~~~~~~~~~~~~~~~


During simulation, the CPU load for active processors is :
        Spectre  0 (11.8 %)      1 (1.1 %)       2 (12.7 %)      4 (1.1 %)
                10 (1.5 %)      16 (1.8 %)      18 (3.8 %)      19 (1.7 %)
                24 (6.2 %)      26 (4.0 %)      
        Other   
Initial condition solution time: CPU = 1.999 ms, elapsed = 1.59693 ms.
Intrinsic tran analysis time:    CPU = 17.998 ms, elapsed = 23.293 ms.
Total time required for tran analysis `tran': CPU = 22.997 ms, elapsed = 32.387 ms.
Time accumulated: CPU = 9.96648 s, elapsed = 165.398 s (2m  45.4s).
Peak resident memory used = 70.8 Mbytes.

finalTimeOP: writing operating point information to rawfile.

Opening the PSF file ../psf/finalTimeOP.info ...
modelParameter: writing model parameter values to rawfile.

Opening the PSF file ../psf/modelParameter.info ...
element: writing instance parameter values to rawfile.

Opening the PSF file ../psf/element.info ...
outputParameter: writing output parameter values to rawfile.

Opening the PSF file ../psf/outputParameter.info ...
designParamVals: writing netlist parameters to rawfile.

Opening the PSFASCII file ../psf/designParamVals.info ...
primitives: writing primitives to rawfile.

Opening the PSFASCII file ../psf/primitives.info.primitives ...
subckts: writing subcircuits to rawfile.

Opening the PSFASCII file ../psf/subckts.info.subckts ...

Warning from spectre.
    WARNING (CMI-2419): gpdk090_pmos1v: `imax' = 1 A is larger than `imelt' = 10 mA.  `imelt' is increased to `imax'.
    WARNING (CMI-2477): I0.PM13: `Rds' = 10.0645 uOhm is less than 0.001. Set to 0.
    WARNING (CMI-2477): I0.PM12: `Rds' = 5.45455 uOhm is less than 0.001. Set to 0.
    WARNING (CMI-2477): I0.PM9: `Rds' = 8.21053 uOhm is less than 0.001. Set to 0.
    WARNING (CMI-2477): I0.PM5: `Rds' = 17.3333 uOhm is less than 0.001. Set to 0.
    WARNING (CMI-2419): gpdk090_nmos1v: `imax' = 1 A is larger than `imelt' = 10 mA.  `imelt' is increased to `imax'.
    WARNING (SPECTRE-16707): Only tran supports psfxl format, result of other analyses will be in psfbin format.


************************************************
Transient Analysis `tran': time = (0 s -> 10 ns)
************************************************

Opening the PSFXL file ../psf/tran.tran.tran ...
Important parameter values:
    start = 0 s
    outputstart = 0 s
    stop = 10 ns
    step = 10 ps
    maxstep = 200 ps
    ic = all
    useprevic = no
    skipdc = no
    reltol = 1e-03
    abstol(V) = 1 uV
    abstol(I) = 1 pA
    temp = 27 C
    tnom = 27 C
    tempeffects = all
    errpreset = moderate
    method = traponly
    lteratio = 3.5
    relref = sigglobal
    cmin = 0 F
    gmin = 1 pS


Output and IC/nodeset summary:
                 save   5       (current)
                 save   18      (voltage)

    tran: time = 310 ps       (3.1 %), step = 160 ps        (1.6 %)
    tran: time = 910 ps       (9.1 %), step = 200 ps          (2 %)
    tran: time = 1.31 ns     (13.1 %), step = 200 ps          (2 %)
    tran: time = 1.91 ns     (19.1 %), step = 200 ps          (2 %)
    tran: time = 2.31 ns     (23.1 %), step = 200 ps          (2 %)
    tran: time = 2.91 ns     (29.1 %), step = 200 ps          (2 %)
    tran: time = 3.31 ns     (33.1 %), step = 200 ps          (2 %)
    tran: time = 3.91 ns     (39.1 %), step = 200 ps          (2 %)
    tran: time = 4.31 ns     (43.1 %), step = 200 ps          (2 %)
    tran: time = 4.91 ns     (49.1 %), step = 200 ps          (2 %)
    tran: time = 5.31 ns     (53.1 %), step = 200 ps          (2 %)
    tran: time = 5.91 ns     (59.1 %), step = 200 ps          (2 %)
    tran: time = 6.31 ns     (63.1 %), step = 200 ps          (2 %)
    tran: time = 6.91 ns     (69.1 %), step = 200 ps          (2 %)
    tran: time = 7.31 ns     (73.1 %), step = 200 ps          (2 %)
    tran: time = 7.91 ns     (79.1 %), step = 200 ps          (2 %)
    tran: time = 8.31 ns     (83.1 %), step = 200 ps          (2 %)
    tran: time = 8.91 ns     (89.1 %), step = 200 ps          (2 %)
    tran: time = 9.31 ns     (93.1 %), step = 200 ps          (2 %)
    tran: time = 9.855 ns    (98.6 %), step = 145 ps       (1.45 %)
Number of accepted tran steps =             54

Maximum value achieved for any signal of each quantity: 
V: V(net3) = 1 V
I: I(V4:p) = 0 A
If your circuit contains signals of the same quantity that are vastly different in size (such as high voltage circuitry combined with low voltage control circuitry), you should consider specifying global option `bin_relref=yes'.

~~~~~~~~~~~~~~~~~~~~~~~~~~~~~~~~~
Post-Transient Simulation Summary
~~~~~~~~~~~~~~~~~~~~~~~~~~~~~~~~~
   -   To further speed up simulation, consider
          add ++aps on command line
~~~~~~~~~~~~~~~~~~~~~~~~~~~~~~~~~


During simulation, the CPU load for active processors is :
        Spectre  0 (11.8 %)      1 (1.1 %)       2 (12.7 %)      4 (1.1 %)
                10 (1.5 %)      16 (1.8 %)      18 (3.8 %)      19 (1.7 %)
                24 (6.2 %)      26 (4.0 %)      
        Other   
Initial condition solution time: CPU = 1 ms, elapsed = 1.12605 ms.
Intrinsic tran analysis time:    CPU = 17.997 ms, elapsed = 24.3199 ms.
Total time required for tran analysis `tran': CPU = 22.997 ms, elapsed = 33.134 ms.
Time accumulated: CPU = 10.0345 s, elapsed = 166.49 s (2m  46.5s).
Peak resident memory used = 71 Mbytes.

finalTimeOP: writing operating point information to rawfile.

Opening the PSF file ../psf/finalTimeOP.info ...
modelParameter: writing model parameter values to rawfile.

Opening the PSF file ../psf/modelParameter.info ...
element: writing instance parameter values to rawfile.

Opening the PSF file ../psf/element.info ...
outputParameter: writing output parameter values to rawfile.

Opening the PSF file ../psf/outputParameter.info ...
designParamVals: writing netlist parameters to rawfile.

Opening the PSFASCII file ../psf/designParamVals.info ...
primitives: writing primitives to rawfile.

Opening the PSFASCII file ../psf/primitives.info.primitives ...
subckts: writing subcircuits to rawfile.

Opening the PSFASCII file ../psf/subckts.info.subckts ...

Warning from spectre.
    WARNING (CMI-2419): gpdk090_pmos1v: `imax' = 1 A is larger than `imelt' = 10 mA.  `imelt' is increased to `imax'.
    WARNING (CMI-2477): I0.PM13: `Rds' = 10.0645 uOhm is less than 0.001. Set to 0.
    WARNING (CMI-2477): I0.PM12: `Rds' = 5.45455 uOhm is less than 0.001. Set to 0.
    WARNING (CMI-2477): I0.PM9: `Rds' = 8.21053 uOhm is less than 0.001. Set to 0.
    WARNING (CMI-2477): I0.PM5: `Rds' = 17.3333 uOhm is less than 0.001. Set to 0.
    WARNING (CMI-2419): gpdk090_nmos1v: `imax' = 1 A is larger than `imelt' = 10 mA.  `imelt' is increased to `imax'.
    WARNING (SPECTRE-16707): Only tran supports psfxl format, result of other analyses will be in psfbin format.


************************************************
Transient Analysis `tran': time = (0 s -> 10 ns)
************************************************

Opening the PSFXL file ../psf/tran.tran.tran ...
Important parameter values:
    start = 0 s
    outputstart = 0 s
    stop = 10 ns
    step = 10 ps
    maxstep = 200 ps
    ic = all
    useprevic = no
    skipdc = no
    reltol = 1e-03
    abstol(V) = 1 uV
    abstol(I) = 1 pA
    temp = 27 C
    tnom = 27 C
    tempeffects = all
    errpreset = moderate
    method = traponly
    lteratio = 3.5
    relref = sigglobal
    cmin = 0 F
    gmin = 1 pS


Output and IC/nodeset summary:
                 save   5       (current)
                 save   18      (voltage)

    tran: time = 310 ps       (3.1 %), step = 160 ps        (1.6 %)
    tran: time = 910 ps       (9.1 %), step = 200 ps          (2 %)
    tran: time = 1.31 ns     (13.1 %), step = 200 ps          (2 %)
    tran: time = 1.91 ns     (19.1 %), step = 200 ps          (2 %)
    tran: time = 2.31 ns     (23.1 %), step = 200 ps          (2 %)
    tran: time = 2.91 ns     (29.1 %), step = 200 ps          (2 %)
    tran: time = 3.31 ns     (33.1 %), step = 200 ps          (2 %)
    tran: time = 3.91 ns     (39.1 %), step = 200 ps          (2 %)
    tran: time = 4.31 ns     (43.1 %), step = 200 ps          (2 %)
    tran: time = 4.91 ns     (49.1 %), step = 200 ps          (2 %)
    tran: time = 5.31 ns     (53.1 %), step = 200 ps          (2 %)
    tran: time = 5.91 ns     (59.1 %), step = 200 ps          (2 %)
    tran: time = 6.31 ns     (63.1 %), step = 200 ps          (2 %)
    tran: time = 6.91 ns     (69.1 %), step = 200 ps          (2 %)
    tran: time = 7.31 ns     (73.1 %), step = 200 ps          (2 %)
    tran: time = 7.91 ns     (79.1 %), step = 200 ps          (2 %)
    tran: time = 8.31 ns     (83.1 %), step = 200 ps          (2 %)
    tran: time = 8.91 ns     (89.1 %), step = 200 ps          (2 %)
    tran: time = 9.31 ns     (93.1 %), step = 200 ps          (2 %)
    tran: time = 9.855 ns    (98.6 %), step = 145 ps       (1.45 %)
Number of accepted tran steps =             54

Maximum value achieved for any signal of each quantity: 
V: V(net4) = 1 V
I: I(V4:p) = 0 A
If your circuit contains signals of the same quantity that are vastly different in size (such as high voltage circuitry combined with low voltage control circuitry), you should consider specifying global option `bin_relref=yes'.

~~~~~~~~~~~~~~~~~~~~~~~~~~~~~~~~~
Post-Transient Simulation Summary
~~~~~~~~~~~~~~~~~~~~~~~~~~~~~~~~~
   -   To further speed up simulation, consider
          add ++aps on command line
~~~~~~~~~~~~~~~~~~~~~~~~~~~~~~~~~


During simulation, the CPU load for active processors is :
        Spectre  0 (11.9 %)      1 (1.1 %)       2 (12.7 %)      4 (1.1 %)
                10 (1.5 %)      16 (1.8 %)      18 (3.8 %)      19 (1.7 %)
                24 (6.2 %)      26 (4.0 %)      
        Other   
Initial condition solution time: CPU = 1 ms, elapsed = 1.22809 ms.
Intrinsic tran analysis time:    CPU = 18.996 ms, elapsed = 24.8799 ms.
Total time required for tran analysis `tran': CPU = 23.995 ms, elapsed = 36.772 ms.
Time accumulated: CPU = 10.1065 s, elapsed = 167.268 s (2m  47.3s).
Peak resident memory used = 71.2 Mbytes.

finalTimeOP: writing operating point information to rawfile.

Opening the PSF file ../psf/finalTimeOP.info ...
modelParameter: writing model parameter values to rawfile.

Opening the PSF file ../psf/modelParameter.info ...
element: writing instance parameter values to rawfile.

Opening the PSF file ../psf/element.info ...
outputParameter: writing output parameter values to rawfile.

Opening the PSF file ../psf/outputParameter.info ...
designParamVals: writing netlist parameters to rawfile.

Opening the PSFASCII file ../psf/designParamVals.info ...
primitives: writing primitives to rawfile.

Opening the PSFASCII file ../psf/primitives.info.primitives ...
subckts: writing subcircuits to rawfile.

Opening the PSFASCII file ../psf/subckts.info.subckts ...

Aggregate audit (12:29:49 AM, Fri Feb 28, 2020):
Time used: CPU = 10.2 s, elapsed = 185 s (3m  5.3s), util. = 5.48%.
Time spent in licensing: elapsed = 37.4 ms.
Peak memory used = 71.7 Mbytes.
Simulation started at: 12:26:43 AM, Fri Feb 28, 2020, ended at: 12:29:49 AM, Fri Feb 28, 2020, with elapsed time (wall clock): 185 s (3m  5.3s).
spectre completes with 0 errors, 881 warnings, and 1 notice.
