Spectre (R) Circuit Simulator
Version 16.1.0.479.isr9 32bit -- 7 Sep 2017
Simulating `input.scs' on eeapps01.seas.ucla.edu at 12:12:47 AM, Fri Feb 28, 2020 (process id: 53777).
H = mpsImport( "spectre" "ipi" "v0.0" ?session "spectre1_190461_2" )
H->sclSetResultDir( "../psf" )
H->sclRun( "all" )
sclCkt0x10e18e18 = H->sclGetCircuit(  "" )
H->sclQuit(  )
