Spectre (R) Circuit Simulator
Version 16.1.0.479.isr9 32bit -- 7 Sep 2017
Simulating `input.scs' on eeapps01.seas.ucla.edu at 9:44:42 PM, Mon Feb 3, 2020 (process id: 70811).
H = mpsImport( "spectre" "ipi" "v0.0" ?session "spectre0_67066_2" )
H->sclSetResultDir( "../psf" )
H->sclRun( "all" )
