
Spectre (R) Circuit Simulator
Version 16.1.0.479.isr9 32bit -- 7 Sep 2017
Copyright (C) 1989-2017 Cadence Design Systems, Inc. All rights reserved worldwide. Cadence and Spectre are registered trademarks of Cadence Design Systems, Inc. All others are the property of their respective holders.

Includes RSA BSAFE(R) Cryptographic or Security Protocol Software from RSA Security, Inc.

User: farooq   Host: eeapps01.seas.ucla.edu   HostID: 43A4F164   PID: 170740
Memory  available: 29.6281 GB  physical: 67.4342 GB
Linux   : Red Hat Enterprise Linux Server release 6.10 (Santiago)
CPU Type: Intel(R) Xeon(R) CPU E5-2630 v3 @ 2.40GHz
All processors running at 1200.0 MHz
        Socket: Processors (Hyperthreaded Processor)
        0:       0 ( 16 ),  2 ( 18 ),  4 ( 20 ),  6 ( 22 ),  8 ( 24 )
                10 ( 26 ), 12 ( 28 ), 14 ( 30 )
        1:       1 ( 17 ),  3 ( 19 ),  5 ( 21 ),  7 ( 23 ),  9 ( 25 )
                11 ( 27 ), 13 ( 29 ), 15 ( 31 )
        
System load averages (1min, 5min, 15min) : 0.0 %, 0.1 %, 0.0 %
Hyperthreading is enabled


Simulating `input.scs' on eeapps01.seas.ucla.edu at 9:55:32 AM, Thur Mar 5, 2020 (process id: 170740).
Current working directory: /w/home.15/ee/ugrad/farooq/ee115c/cadence-labs/simulation/comparator/spectre/schematic/netlist
Command line:
    /w/apps3/Cadence/SPECTRE161/tools/bin/spectre input.scs +escchars  \
        +log ../psf/spectre.out +inter=mpsc  \
        +mpssession=spectre0_169723_1 -format psfxl -raw ../psf  \
        +lqtimeout 900 -maxw 5 -maxn 5
spectre pid = 170740

Loading /w/apps3/Cadence/SPECTRE161/tools.lnx86/cmi/lib/5.0/libinfineon_sh.so ...
Loading /w/apps3/Cadence/SPECTRE161/tools.lnx86/cmi/lib/5.0/libphilips_o_sh.so ...
Loading /w/apps3/Cadence/SPECTRE161/tools.lnx86/cmi/lib/5.0/libphilips_sh.so ...
Loading /w/apps3/Cadence/SPECTRE161/tools.lnx86/cmi/lib/5.0/libsparam_sh.so ...
Loading /w/apps3/Cadence/SPECTRE161/tools.lnx86/cmi/lib/5.0/libstmodels_sh.so ...
Reading file:  /w/home.15/ee/ugrad/farooq/ee115c/cadence-labs/simulation/comparator/spectre/schematic/netlist/input.scs
Reading file:  /w/apps3/Cadence/SPECTRE161/tools.lnx86/spectre/etc/configs/mapsubckt.cfg
Reading file:  /w/apps3/Cadence/SPECTRE161/tools.lnx86/spectre/etc/configs/spectre.cfg
Reading link:  /usr/public.2
Reading file:  /w/apps2/public.2/ee115c/cadence-labs/gpdk090_v3.4/models/spectre/gpdk090.scs
Reading file:  /w/apps2/public.2/ee115c/cadence-labs/gpdk090_v3.4/models/spectre/gpdk090_mos.scs
Reading file:  /w/apps2/public.2/ee115c/cadence-labs/gpdk090_v3.4/models/spectre/gpdk090_mos_iso.scs
Reading file:  /w/apps2/public.2/ee115c/cadence-labs/gpdk090_v3.4/models/spectre/gpdk090_moscap.scs
Reading file:  /w/apps2/public.2/ee115c/cadence-labs/gpdk090_v3.4/models/spectre/gpdk090_resistor.scs
Reading file:  /w/apps2/public.2/ee115c/cadence-labs/gpdk090_v3.4/models/spectre/resd_va.va
Reading link:  /w/apps3/Cadence/SPECTRE161/tools.lnx86/spectre/etc/ahdl/constants.h
Reading file:  /w/apps3/Cadence/SPECTRE161/tools.lnx86/spectre/etc/ahdl/constants.vams
Reading link:  /w/apps3/Cadence/SPECTRE161/tools.lnx86/spectre/etc/ahdl/discipline.h
Reading file:  /w/apps3/Cadence/SPECTRE161/tools.lnx86/spectre/etc/ahdl/disciplines.vams
Reading file:  /w/apps2/public.2/ee115c/cadence-labs/gpdk090_v3.4/models/spectre/gpdk090_capacitor.scs
Reading file:  /w/apps2/public.2/ee115c/cadence-labs/gpdk090_v3.4/models/spectre/gpdk090_diode.scs
Reading file:  /w/apps2/public.2/ee115c/cadence-labs/gpdk090_v3.4/models/spectre/gpdk090_bipolar.scs
Reading file:  /w/home.15/ee/ugrad/farooq/ee115c/cadence-labs/simulation/comparator/spectre/schematic/netlist/_graphical_stimuli.scs
Time for NDB Parsing: CPU = 251.962 ms, elapsed = 386.206 ms.
Time accumulated: CPU = 288.955 ms, elapsed = 386.216 ms.
Peak resident memory used = 35.4 Mbytes.


The CPU load for active processors is :
        Spectre  0 (2.7 %)       1 (2.6 %)       2 (24.3 %)      5 (2.6 %)
                18 (7.5 %)      19 (13.2 %)     22 (7.7 %)      24 (35.9 %)
        Other   

Warning from spectre in `NAND2X1':`I34', during hierarchy flattening.
    WARNING (SFE-30): "input.scs" 14: I34.mp1: `simM' is not a valid parameter for an instance of `gpdk090_pmos1v'.  Ignored.
    WARNING (SFE-30): "input.scs" 16: I34.mp0: `simM' is not a valid parameter for an instance of `gpdk090_pmos1v'.  Ignored.
    WARNING (SFE-30): "input.scs" 18: I34.mn1: `simM' is not a valid parameter for an instance of `gpdk090_nmos1v'.  Ignored.
    WARNING (SFE-30): "input.scs" 20: I34.mn0: `simM' is not a valid parameter for an instance of `gpdk090_nmos1v'.  Ignored.
Warning from spectre in `NAND2X1':`I20', during hierarchy flattening.
    WARNING (SFE-30): "input.scs" 14: I20.mp1: `simM' is not a valid parameter for an instance of `gpdk090_pmos1v'.  Ignored.
        Further occurrences of this warning will be suppressed.

Time for Elaboration: CPU = 30.996 ms, elapsed = 32.0361 ms.
Time accumulated: CPU = 320.95 ms, elapsed = 418.511 ms.
Peak resident memory used = 39.5 Mbytes.


Time for EDB Visiting: CPU = 4 ms, elapsed = 3.99399 ms.
Time accumulated: CPU = 324.95 ms, elapsed = 422.751 ms.
Peak resident memory used = 40.2 Mbytes.


Warning from spectre during initial setup.
    WARNING (CMI-2419): gpdk090_pmos1v: `imax' = 1 A is larger than `imelt' = 10 mA.  `imelt' is increased to `imax'.
    WARNING (CMI-2477): I33.I2.mp0: `Rds' = 12.1875 uOhm is less than 0.001. Set to 0.
    WARNING (CMI-2419): gpdk090_nmos1v: `imax' = 1 A is larger than `imelt' = 10 mA.  `imelt' is increased to `imax'.
Notice from spectre during topology check.
    No DC path from node `I34.mn1:int_s' to ground, Gmin installed to provide path.


Global user options:
             reltol = 0.001
            vabstol = 1e-06
            iabstol = 1e-12
               temp = 27
               gmin = 1e-12
             rforce = 1
           maxnotes = 5
           maxwarns = 5
             digits = 5
               cols = 80
             pivrel = 0.001
           sensfile = ../psf/sens.output
     checklimitdest = psf
               save = allpub
               tnom = 27
             scalem = 1
              scale = 1

Scoped user options:

Circuit inventory:
              nodes 78
            bsim3v3 132   
            vsource 10    

Analysis and control statement inventory:
               info 6     

Output statements:
             .probe 0     
           .measure 0     
               save 0     


Warning from spectre during initial setup.
    WARNING (CMI-2477): I33.I2.mp0: `Rds' = 12.1875 uOhm is less than 0.001. Set to 0.
Notice from spectre.
    127 warnings suppressed.

Time for parsing: CPU = 7.999 ms, elapsed = 8.20708 ms.
Time accumulated: CPU = 332.949 ms, elapsed = 431.177 ms.
Peak resident memory used = 41.5 Mbytes.

~~~~~~~~~~~~~~~~~~~~~~
Pre-Simulation Summary
~~~~~~~~~~~~~~~~~~~~~~
~~~~~~~~~~~~~~~~~~~~~~
Entering remote command mode using MPSC service (spectre, ipi, v0.0, spectre0_169723_1, ).

Warning from spectre.
    WARNING (SPECTRE-16707): Only tran supports psfxl format, result of other analyses will be in psfbin format.

modelParameter: writing model parameter values to rawfile.

Opening the PSF file ../psf/modelParameter.info ...
element: writing instance parameter values to rawfile.

Opening the PSF file ../psf/element.info ...
outputParameter: writing output parameter values to rawfile.

Opening the PSF file ../psf/outputParameter.info ...
designParamVals: writing netlist parameters to rawfile.

Opening the PSFASCII file ../psf/designParamVals.info ...
primitives: writing primitives to rawfile.

Opening the PSFASCII file ../psf/primitives.info.primitives ...
subckts: writing subcircuits to rawfile.

Opening the PSFASCII file ../psf/subckts.info.subckts ...

Aggregate audit (9:57:12 AM, Thur Mar 5, 2020):
Time used: CPU = 397 ms, elapsed = 99.9 s (1m  39.9s), util. = 397e-03%.
Time spent in licensing: elapsed = 40.1 ms.
Peak memory used = 43.2 Mbytes.
Simulation started at: 9:55:32 AM, Thur Mar 5, 2020, ended at: 9:57:12 AM, Thur Mar 5, 2020, with elapsed time (wall clock): 99.9 s (1m  39.9s).
spectre completes with 0 errors, 10 warnings, and 2 notices.
