
Spectre (R) Circuit Simulator
Version 16.1.0.479.isr9 32bit -- 7 Sep 2017
Copyright (C) 1989-2017 Cadence Design Systems, Inc. All rights reserved worldwide. Cadence and Spectre are registered trademarks of Cadence Design Systems, Inc. All others are the property of their respective holders.

Includes RSA BSAFE(R) Cryptographic or Security Protocol Software from RSA Security, Inc.

User: farooq   Host: eeapps01.seas.ucla.edu   HostID: 43A4F164   PID: 70811
Memory  available: 41.1815 GB  physical: 67.4342 GB
Linux   : Red Hat Enterprise Linux Server release 6.10 (Santiago)
CPU Type: Intel(R) Xeon(R) CPU E5-2630 v3 @ 2.40GHz
All processors running at 1200.0 MHz
        Socket: Processors (Hyperthreaded Processor)
        0:       0 ( 16 ),  2 ( 18 ),  4 ( 20 ),  6 ( 22 ),  8 ( 24 )
                10 ( 26 ), 12 ( 28 ), 14 ( 30 )
        1:       1 ( 17 ),  3 ( 19 ),  5 ( 21 ),  7 ( 23 ),  9 ( 25 )
                11 ( 27 ), 13 ( 29 ), 15 ( 31 )
        
System load averages (1min, 5min, 15min) : 0.4 %, 0.2 %, 0.1 %
Hyperthreading is enabled


Simulating `input.scs' on eeapps01.seas.ucla.edu at 9:44:42 PM, Mon Feb 3, 2020 (process id: 70811).
Current working directory: /w/home.15/ee/ugrad/farooq/ee115c/cadence-labs/simulation/HW3_inverters/spectre/schematic/netlist
Command line:
    /w/apps3/Cadence/SPECTRE161/tools/bin/spectre input.scs +escchars  \
        +log ../psf/spectre.out +inter=mpsc  \
        +mpssession=spectre0_67066_2 -format psfxl -raw ../psf  \
        +lqtimeout 900 -maxw 5 -maxn 5
spectre pid = 70811

Loading /w/apps3/Cadence/SPECTRE161/tools.lnx86/cmi/lib/5.0/libinfineon_sh.so ...
Loading /w/apps3/Cadence/SPECTRE161/tools.lnx86/cmi/lib/5.0/libphilips_o_sh.so ...
Loading /w/apps3/Cadence/SPECTRE161/tools.lnx86/cmi/lib/5.0/libphilips_sh.so ...
Loading /w/apps3/Cadence/SPECTRE161/tools.lnx86/cmi/lib/5.0/libsparam_sh.so ...
Loading /w/apps3/Cadence/SPECTRE161/tools.lnx86/cmi/lib/5.0/libstmodels_sh.so ...
Reading file:  /w/home.15/ee/ugrad/farooq/ee115c/cadence-labs/simulation/HW3_inverters/spectre/schematic/netlist/input.scs
Reading file:  /w/apps3/Cadence/SPECTRE161/tools.lnx86/spectre/etc/configs/mapsubckt.cfg
Reading file:  /w/apps3/Cadence/SPECTRE161/tools.lnx86/spectre/etc/configs/spectre.cfg
Reading link:  /usr/public.2
Reading file:  /w/apps2/public.2/ee115c/cadence-labs/gpdk090_v3.4/models/spectre/gpdk090.scs
Reading file:  /w/apps2/public.2/ee115c/cadence-labs/gpdk090_v3.4/models/spectre/gpdk090_mos.scs
Reading file:  /w/apps2/public.2/ee115c/cadence-labs/gpdk090_v3.4/models/spectre/gpdk090_mos_iso.scs
Reading file:  /w/apps2/public.2/ee115c/cadence-labs/gpdk090_v3.4/models/spectre/gpdk090_moscap.scs
Reading file:  /w/apps2/public.2/ee115c/cadence-labs/gpdk090_v3.4/models/spectre/gpdk090_resistor.scs
Reading file:  /w/apps2/public.2/ee115c/cadence-labs/gpdk090_v3.4/models/spectre/resd_va.va
Reading link:  /w/apps3/Cadence/SPECTRE161/tools.lnx86/spectre/etc/ahdl/constants.h
Reading file:  /w/apps3/Cadence/SPECTRE161/tools.lnx86/spectre/etc/ahdl/constants.vams
Reading link:  /w/apps3/Cadence/SPECTRE161/tools.lnx86/spectre/etc/ahdl/discipline.h
Reading file:  /w/apps3/Cadence/SPECTRE161/tools.lnx86/spectre/etc/ahdl/disciplines.vams
Reading file:  /w/apps2/public.2/ee115c/cadence-labs/gpdk090_v3.4/models/spectre/gpdk090_capacitor.scs
Reading file:  /w/apps2/public.2/ee115c/cadence-labs/gpdk090_v3.4/models/spectre/gpdk090_diode.scs
Reading file:  /w/apps2/public.2/ee115c/cadence-labs/gpdk090_v3.4/models/spectre/gpdk090_bipolar.scs
Time for NDB Parsing: CPU = 255.962 ms, elapsed = 375.335 ms.
Time accumulated: CPU = 289.955 ms, elapsed = 375.344 ms.
Peak resident memory used = 37.4 Mbytes.


The CPU load for active processors is :
        Spectre  0 (5.3 %)       1 (2.7 %)      17 (2.6 %)      18 (29.7 %)
                19 (10.8 %)     21 (2.7 %)      22 (8.1 %)      30 (36.8 %)
        Other   

Warning from spectre during hierarchy flattening.
    WARNING (SFE-30): "input.scs" 14: NM1: `simM' is not a valid parameter for an instance of `gpdk090_nmos1v'.  Ignored.
    WARNING (SFE-30): "input.scs" 16: NM0: `simM' is not a valid parameter for an instance of `gpdk090_nmos1v'.  Ignored.
    WARNING (SFE-30): "input.scs" 18: PM1: `simM' is not a valid parameter for an instance of `gpdk090_pmos1v'.  Ignored.
    WARNING (SFE-30): "input.scs" 20: PM0: `simM' is not a valid parameter for an instance of `gpdk090_pmos1v'.  Ignored.

Time for Elaboration: CPU = 23.997 ms, elapsed = 26.881 ms.
Time accumulated: CPU = 314.951 ms, elapsed = 402.49 ms.
Peak resident memory used = 41.4 Mbytes.


Time for EDB Visiting: CPU = 0 s, elapsed = 682.116 us.
Time accumulated: CPU = 315.951 ms, elapsed = 403.308 ms.
Peak resident memory used = 41.8 Mbytes.


Warning from spectre during initial setup.
    WARNING (CMI-2419): gpdk090_pmos1v: `imax' = 1 A is larger than `imelt' = 10 mA.  `imelt' is increased to `imax'.
    WARNING (CMI-2477): PM0: `Rds' = 33.913 uOhm is less than 0.001. Set to 0.
    WARNING (CMI-2419): gpdk090_nmos1v: `imax' = 1 A is larger than `imelt' = 10 mA.  `imelt' is increased to `imax'.
Notice from spectre during topology check.
    No connections to node `0'.
    No DC path from node `net10' to ground, Gmin installed to provide path.


Global user options:
             reltol = 0.001
            vabstol = 1e-06
            iabstol = 1e-12
               temp = 27
               gmin = 1e-12
             rforce = 1
           maxnotes = 5
           maxwarns = 5
             digits = 5
               cols = 80
             pivrel = 0.001
           sensfile = ../psf/sens.output
     checklimitdest = psf
               save = allpub
               tnom = 27
             scalem = 1
              scale = 1

Scoped user options:

Circuit inventory:
              nodes 7
            bsim3v3 4     
            vsource 6     

Analysis and control statement inventory:
                 dc 1     
               info 6     

Output statements:
             .probe 0     
           .measure 0     
               save 1     


Warning from spectre during initial setup.
    WARNING (CMI-2477): PM0: `Rds' = 33.913 uOhm is less than 0.001. Set to 0.

Time for parsing: CPU = 4 ms, elapsed = 3.77202 ms.
Time accumulated: CPU = 319.951 ms, elapsed = 407.203 ms.
Peak resident memory used = 43 Mbytes.

~~~~~~~~~~~~~~~~~~~~~~
Pre-Simulation Summary
~~~~~~~~~~~~~~~~~~~~~~

Warning from spectre.
    WARNING (SPECTRE-470): No connections to node `gnd'.

~~~~~~~~~~~~~~~~~~~~~~
Entering remote command mode using MPSC service (spectre, ipi, v0.0, spectre0_67066_2, ).

Warning from spectre.
    WARNING (SPECTRE-16707): Only tran supports psfxl format, result of other analyses will be in psfbin format.


********************************
DC Analysis `dc': VIN = (0 -> 1)
********************************

Opening the PSF file ../psf/dc.dc ...
Important parameter values:
    reltol = 1e-03
    abstol(V) = 1 uV
    abstol(I) = 1 pA
    temp = 27 C
    tnom = 27 C
    tempeffects = all
    gmindc = 1 pS

Warning from spectre at VIN = 50e-03 during DC analysis `dc'.
    WARNING (CMI-2477): PM0: `Rds' = 33.913 uOhm is less than 0.001. Set to 0.
Notice from spectre at VIN = 50e-03 during DC analysis `dc'.
    GminDC = 1 pS is large enough to noticeably affect the DC solution.
        dV(net10) = 5.55083 uV
        Use the `gmin_check' option to eliminate or expand this report.

    dc: VIN = 50e-03         (5 %), step = 50e-03          (5 %)

Warning from spectre at VIN = 100e-03 during DC analysis `dc'.
    WARNING (CMI-2477): PM0: `Rds' = 33.913 uOhm is less than 0.001. Set to 0.
Notice from spectre at VIN = 100e-03 during DC analysis `dc'.
    GminDC = 1 pS is large enough to noticeably affect the DC solution.
        dV(net10) = 11.0939 uV
        Use the `gmin_check' option to eliminate or expand this report.

    dc: VIN = 100e-03       (10 %), step = 50e-03          (5 %)

Warning from spectre at VIN = 150e-03 during DC analysis `dc'.
    WARNING (CMI-2477): PM0: `Rds' = 33.913 uOhm is less than 0.001. Set to 0.
Notice from spectre at VIN = 150e-03 during DC analysis `dc'.
    GminDC = 1 pS is large enough to noticeably affect the DC solution.
        dV(net10) = 16.6609 uV
        Use the `gmin_check' option to eliminate or expand this report.

    dc: VIN = 150e-03       (15 %), step = 50e-03          (5 %)

Warning from spectre at VIN = 200e-03 during DC analysis `dc'.
    WARNING (CMI-2477): PM0: `Rds' = 33.913 uOhm is less than 0.001. Set to 0.
Notice from spectre at VIN = 200e-03 during DC analysis `dc'.
    GminDC = 1 pS is large enough to noticeably affect the DC solution.
        dV(net10) = 22.1883 uV
        Use the `gmin_check' option to eliminate or expand this report.

    dc: VIN = 200e-03       (20 %), step = 50e-03          (5 %)

Warning from spectre at VIN = 250e-03 during DC analysis `dc'.
    WARNING (CMI-2477): PM0: `Rds' = 33.913 uOhm is less than 0.001. Set to 0.
        Further occurrences of this warning will be suppressed.
Notice from spectre at VIN = 250e-03 during DC analysis `dc'.
    GminDC = 1 pS is large enough to noticeably affect the DC solution.
        Further occurrences of this notice will be suppressed.
        dV(net10) = 27.7479 uV
        Further occurrences of this notice will be suppressed.
        Use the `gmin_check' option to eliminate or expand this report.
        Further occurrences of this notice will be suppressed.

    dc: VIN = 250e-03       (25 %), step = 50e-03          (5 %)
    dc: VIN = 300e-03       (30 %), step = 50e-03          (5 %)
    dc: VIN = 350e-03       (35 %), step = 50e-03          (5 %)
    dc: VIN = 400e-03       (40 %), step = 50e-03          (5 %)
    dc: VIN = 450e-03       (45 %), step = 50e-03          (5 %)
    dc: VIN = 500e-03       (50 %), step = 50e-03          (5 %)
    dc: VIN = 550e-03       (55 %), step = 50e-03          (5 %)
    dc: VIN = 600e-03       (60 %), step = 50e-03          (5 %)
    dc: VIN = 650e-03       (65 %), step = 50e-03          (5 %)
    dc: VIN = 700e-03       (70 %), step = 50e-03          (5 %)
    dc: VIN = 750e-03       (75 %), step = 50e-03          (5 %)
    dc: VIN = 800e-03       (80 %), step = 50e-03          (5 %)
    dc: VIN = 850e-03       (85 %), step = 50e-03          (5 %)
    dc: VIN = 900e-03       (90 %), step = 50e-03          (5 %)
    dc: VIN = 950e-03       (95 %), step = 50e-03          (5 %)
    dc: VIN = 1            (100 %), step = 50e-03          (5 %)

Maximum value achieved for any signal of each quantity: 
V: V(NM1:int_d) = 1 V
I: I(V2:p) = 70.32 uA
DC simulation time: CPU = 342.947 ms, elapsed = 691.446 ms.
Total time required for dc analysis `dc': CPU = 20.996 ms, elapsed = 24.0669 ms.
Time accumulated: CPU = 343.947 ms, elapsed = 692.814 ms.
Peak resident memory used = 44.4 Mbytes.


Notice from spectre.
    15 notices suppressed.
    15 warnings suppressed.
Warning from spectre.
    WARNING (CMI-2477): PM0: `Rds' = 33.913 uOhm is less than 0.001. Set to 0.

modelParameter: writing model parameter values to rawfile.

Opening the PSF file ../psf/modelParameter.info ...
element: writing instance parameter values to rawfile.

Opening the PSF file ../psf/element.info ...
outputParameter: writing output parameter values to rawfile.

Opening the PSF file ../psf/outputParameter.info ...
designParamVals: writing netlist parameters to rawfile.

Opening the PSFASCII file ../psf/designParamVals.info ...
primitives: writing primitives to rawfile.

Opening the PSFASCII file ../psf/primitives.info.primitives ...
subckts: writing subcircuits to rawfile.

Opening the PSFASCII file ../psf/subckts.info.subckts ...

Spectre received SIGTERM sent from PID: 70701 with UID: 11860.

Error found by spectre.
    ERROR (SPECTRE-25): Killed by user.


Aggregate audit (10:06:33 PM, Mon Feb 3, 2020):
Time used: CPU = 426 ms, elapsed = 1.31 ks (21m  50.7s), util. = 32.5e-03%.
Time spent in licensing: elapsed = 40.1 ms.
Peak memory used = 45.1 Mbytes.
Simulation started at: 9:44:42 PM, Mon Feb 3, 2020, ended at: 10:06:33 PM, Mon Feb 3, 2020, with elapsed time (wall clock): 1.31 ks (21m  50.7s).
spectre completes with 1 error, 16 warnings, and 9 notices.
spectre terminated prematurely due to fatal error.
