
Spectre (R) Circuit Simulator
Version 16.1.0.479.isr9 32bit -- 7 Sep 2017
Copyright (C) 1989-2017 Cadence Design Systems, Inc. All rights reserved worldwide. Cadence and Spectre are registered trademarks of Cadence Design Systems, Inc. All others are the property of their respective holders.

Includes RSA BSAFE(R) Cryptographic or Security Protocol Software from RSA Security, Inc.

User: farooq   Host: eeapps05.seas.ucla.edu   HostID: 43A4F564   PID: 96384
Memory  available: 40.1234 GB  physical: 67.4342 GB
Linux   : Red Hat Enterprise Linux Server release 6.10 (Santiago)
CPU Type: Intel(R) Xeon(R) CPU E5-2630 v3 @ 2.40GHz
All processors running at 1200.0 MHz
        Socket: Processors (Hyperthreaded Processor)
        0:       0 ( 16 ),  2 ( 18 ),  4 ( 20 ),  6 ( 22 ),  8 ( 24 )
                10 ( 26 ), 12 ( 28 ), 14 ( 30 )
        1:       1 ( 17 ),  3 ( 19 ),  5 ( 21 ),  7 ( 23 ),  9 ( 25 )
                11 ( 27 ), 13 ( 29 ), 15 ( 31 )
        
System load averages (1min, 5min, 15min) : 0.3 %, 0.1 %, 0.0 %
Hyperthreading is enabled


Simulating `input.scs' on eeapps05.seas.ucla.edu at 8:33:25 PM, Fri Feb 21, 2020 (process id: 96384).
Current working directory: /w/home.15/ee/ugrad/farooq/ee115c/cadence-labs/simulation/FO4-inv/spectre/schematic/netlist
Command line:
    /w/apps3/Cadence/SPECTRE161/tools/bin/spectre input.scs +escchars  \
        +log ../psf/spectre.out +inter=mpsc  \
        +mpssession=spectre0_94078_2 -format psfxl -raw ../psf  \
        +lqtimeout 900 -maxw 5 -maxn 5
spectre pid = 96384

Loading /w/apps3/Cadence/SPECTRE161/tools.lnx86/cmi/lib/5.0/libinfineon_sh.so ...
Loading /w/apps3/Cadence/SPECTRE161/tools.lnx86/cmi/lib/5.0/libphilips_o_sh.so ...
Loading /w/apps3/Cadence/SPECTRE161/tools.lnx86/cmi/lib/5.0/libphilips_sh.so ...
Loading /w/apps3/Cadence/SPECTRE161/tools.lnx86/cmi/lib/5.0/libsparam_sh.so ...
Loading /w/apps3/Cadence/SPECTRE161/tools.lnx86/cmi/lib/5.0/libstmodels_sh.so ...
Reading file:  /w/home.15/ee/ugrad/farooq/ee115c/cadence-labs/simulation/FO4-inv/spectre/schematic/netlist/input.scs
Reading file:  /w/apps3/Cadence/SPECTRE161/tools.lnx86/spectre/etc/configs/mapsubckt.cfg
Reading file:  /w/apps3/Cadence/SPECTRE161/tools.lnx86/spectre/etc/configs/spectre.cfg
Reading link:  /usr/public.2
Reading file:  /w/apps2/public.2/ee115c/cadence-labs/gpdk090_v3.4/models/spectre/gpdk090.scs
Reading file:  /w/apps2/public.2/ee115c/cadence-labs/gpdk090_v3.4/models/spectre/gpdk090_mos.scs
Reading file:  /w/apps2/public.2/ee115c/cadence-labs/gpdk090_v3.4/models/spectre/gpdk090_mos_iso.scs
Reading file:  /w/apps2/public.2/ee115c/cadence-labs/gpdk090_v3.4/models/spectre/gpdk090_moscap.scs
Reading file:  /w/apps2/public.2/ee115c/cadence-labs/gpdk090_v3.4/models/spectre/gpdk090_resistor.scs
Reading file:  /w/apps2/public.2/ee115c/cadence-labs/gpdk090_v3.4/models/spectre/resd_va.va
Reading link:  /w/apps3/Cadence/SPECTRE161/tools.lnx86/spectre/etc/ahdl/constants.h
Reading file:  /w/apps3/Cadence/SPECTRE161/tools.lnx86/spectre/etc/ahdl/constants.vams
Reading link:  /w/apps3/Cadence/SPECTRE161/tools.lnx86/spectre/etc/ahdl/discipline.h
Reading file:  /w/apps3/Cadence/SPECTRE161/tools.lnx86/spectre/etc/ahdl/disciplines.vams
Reading file:  /w/apps2/public.2/ee115c/cadence-labs/gpdk090_v3.4/models/spectre/gpdk090_capacitor.scs
Reading file:  /w/apps2/public.2/ee115c/cadence-labs/gpdk090_v3.4/models/spectre/gpdk090_diode.scs
Reading file:  /w/apps2/public.2/ee115c/cadence-labs/gpdk090_v3.4/models/spectre/gpdk090_bipolar.scs
Reading file:  /w/home.15/ee/ugrad/farooq/ee115c/cadence-labs/simulation/FO4-inv/spectre/schematic/netlist/_graphical_stimuli.scs
Time for NDB Parsing: CPU = 238.963 ms, elapsed = 357.248 ms.
Time accumulated: CPU = 275.957 ms, elapsed = 357.257 ms.
Peak resident memory used = 35.4 Mbytes.


The CPU load for active processors is :
        Spectre  0 (2.9 %)       1 (5.6 %)       2 (2.8 %)       8 (8.3 %)
                18 (5.6 %)      19 (14.3 %)     20 (2.8 %)      23 (2.8 %)
                28 (60.0 %)     
        Other   

Warning from spectre in `INVX1':`I6.I3', in `FO4_inv_stage':`I6', during hierarchy flattening.
    WARNING (SFE-30): "input.scs" 15: I6.I3.NM0: `simM' is not a valid parameter for an instance of `gpdk090_nmos1v'.  Ignored.
    WARNING (SFE-30): "input.scs" 17: I6.I3.PM0: `simM' is not a valid parameter for an instance of `gpdk090_pmos1v'.  Ignored.
Warning from spectre in `INVX1':`I6.I2', in `FO4_inv_stage':`I6', during hierarchy flattening.
    WARNING (SFE-30): "input.scs" 15: I6.I2.NM0: `simM' is not a valid parameter for an instance of `gpdk090_nmos1v'.  Ignored.
    WARNING (SFE-30): "input.scs" 17: I6.I2.PM0: `simM' is not a valid parameter for an instance of `gpdk090_pmos1v'.  Ignored.
Warning from spectre in `INVX1':`I6.I1', in `FO4_inv_stage':`I6', during hierarchy flattening.
    WARNING (SFE-30): "input.scs" 15: I6.I1.NM0: `simM' is not a valid parameter for an instance of `gpdk090_nmos1v'.  Ignored.
        Further occurrences of this warning will be suppressed.

Time for Elaboration: CPU = 26.996 ms, elapsed = 27.2861 ms.
Time accumulated: CPU = 302.953 ms, elapsed = 384.798 ms.
Peak resident memory used = 39.3 Mbytes.


Time for EDB Visiting: CPU = 1 ms, elapsed = 1.08099 ms.
Time accumulated: CPU = 303.953 ms, elapsed = 386.012 ms.
Peak resident memory used = 39.9 Mbytes.


Warning from spectre during initial setup.
    WARNING (CMI-2419): gpdk090_pmos1v: `imax' = 1 A is larger than `imelt' = 10 mA.  `imelt' is increased to `imax'.
    WARNING (CMI-2477): I4.I0.PM0: `Rds' = 16.5957 uOhm is less than 0.001. Set to 0.
    WARNING (CMI-2419): gpdk090_nmos1v: `imax' = 1 A is larger than `imelt' = 10 mA.  `imelt' is increased to `imax'.


Global user options:
             reltol = 0.001
            vabstol = 1e-06
            iabstol = 1e-12
               temp = 27
               gmin = 1e-12
             rforce = 1
           maxnotes = 5
           maxwarns = 5
             digits = 5
               cols = 80
             pivrel = 0.001
           sensfile = ../psf/sens.output
     checklimitdest = psf
               save = allpub
               tnom = 27
             scalem = 1
              scale = 1

Scoped user options:

Circuit inventory:
              nodes 15
            bsim3v3 24    
          capacitor 10    
            vsource 3     

Analysis and control statement inventory:
               info 7     
               tran 1     

Output statements:
             .probe 0     
           .measure 0     
               save 0     


Warning from spectre during initial setup.
    WARNING (CMI-2477): I4.I0.PM0: `Rds' = 16.5957 uOhm is less than 0.001. Set to 0.
Notice from spectre.
    19 warnings suppressed.

Time for parsing: CPU = 2.999 ms, elapsed = 3.85809 ms.
Time accumulated: CPU = 306.952 ms, elapsed = 389.995 ms.
Peak resident memory used = 41 Mbytes.

~~~~~~~~~~~~~~~~~~~~~~
Pre-Simulation Summary
~~~~~~~~~~~~~~~~~~~~~~
~~~~~~~~~~~~~~~~~~~~~~
Entering remote command mode using MPSC service (spectre, ipi, v0.0, spectre0_94078_2, ).

Warning from spectre.
    WARNING (SPECTRE-16707): Only tran supports psfxl format, result of other analyses will be in psfbin format.


***********************************************
Transient Analysis `tran': time = (0 s -> 1 ns)
***********************************************

Opening the PSFXL file ../psf/tran.tran.tran ...
Important parameter values:
    start = 0 s
    outputstart = 0 s
    stop = 1 ns
    step = 1 ps
    maxstep = 20 ps
    ic = all
    useprevic = no
    skipdc = no
    reltol = 1e-03
    abstol(V) = 1 uV
    abstol(I) = 1 pA
    temp = 27 C
    tnom = 27 C
    tempeffects = all
    errpreset = moderate
    method = traponly
    lteratio = 3.5
    relref = sigglobal
    cmin = 0 F
    gmin = 1 pS


Output and IC/nodeset summary:
                 save   3       (current)
                 save   15      (voltage)

    tran: time = 31 ps        (3.1 %), step = 16 ps         (1.6 %)
    tran: time = 85.5 ps     (8.55 %), step = 14.5 ps      (1.45 %)
    tran: time = 125 ps      (12.5 %), step = 5.655 ps     (566 m%)
    tran: time = 179.6 ps      (18 %), step = 8.246 ps     (825 m%)
    tran: time = 228.6 ps    (22.9 %), step = 9.652 ps     (965 m%)
    tran: time = 291.5 ps    (29.2 %), step = 20 ps           (2 %)
    tran: time = 327.7 ps    (32.8 %), step = 3.687 ps     (369 m%)
    tran: time = 383.1 ps    (38.3 %), step = 10.13 ps     (1.01 %)
    tran: time = 426.9 ps    (42.7 %), step = 9.263 ps     (926 m%)
    tran: time = 482.5 ps    (48.3 %), step = 20 ps           (2 %)
    tran: time = 530.4 ps      (53 %), step = 5.583 ps     (558 m%)
    tran: time = 578.5 ps    (57.9 %), step = 8.259 ps     (826 m%)
    tran: time = 627.1 ps    (62.7 %), step = 9.829 ps     (983 m%)
    tran: time = 690 ps        (69 %), step = 20 ps           (2 %)
    tran: time = 726.1 ps    (72.6 %), step = 2.763 ps     (276 m%)
    tran: time = 775.3 ps    (77.5 %), step = 7.74 ps      (774 m%)
    tran: time = 831.4 ps    (83.1 %), step = 9.064 ps     (906 m%)
    tran: time = 885.7 ps    (88.6 %), step = 14.33 ps     (1.43 %)
    tran: time = 925.3 ps    (92.5 %), step = 5.738 ps     (574 m%)
    tran: time = 979.2 ps    (97.9 %), step = 8.257 ps     (826 m%)
Number of accepted tran steps =             149

Maximum value achieved for any signal of each quantity: 
V: V(I4.I0.PM0:int_d) = 1.033 V
I: I(_vvddd!:p) = 860.4 uA
If your circuit contains signals of the same quantity that are vastly different in size (such as high voltage circuitry combined with low voltage control circuitry), you should consider specifying global option `bin_relref=yes'.

~~~~~~~~~~~~~~~~~~~~~~~~~~~~~~~~~
Post-Transient Simulation Summary
~~~~~~~~~~~~~~~~~~~~~~~~~~~~~~~~~
   -   To further speed up simulation, consider
          add ++aps on command line
~~~~~~~~~~~~~~~~~~~~~~~~~~~~~~~~~


During simulation, the CPU load for active processors is :
        Spectre  0 (4.4 %)       1 (2.2 %)       2 (1.1 %)       6 (1.1 %)
                 8 (3.3 %)      18 (2.2 %)      19 (5.5 %)      20 (1.1 %)
                23 (1.1 %)      28 (33.3 %)     
        Other   
Initial condition solution time: CPU = 2 ms, elapsed = 1.86181 ms.
Intrinsic tran analysis time:    CPU = 51.992 ms, elapsed = 56.231 ms.
Total time required for tran analysis `tran': CPU = 57.991 ms, elapsed = 64.137 ms.
Time accumulated: CPU = 368.942 ms, elapsed = 924.112 ms.
Peak resident memory used = 43.3 Mbytes.

finalTimeOP: writing operating point information to rawfile.

Opening the PSF file ../psf/finalTimeOP.info ...
modelParameter: writing model parameter values to rawfile.

Opening the PSF file ../psf/modelParameter.info ...
element: writing instance parameter values to rawfile.

Opening the PSF file ../psf/element.info ...
outputParameter: writing output parameter values to rawfile.

Opening the PSF file ../psf/outputParameter.info ...
designParamVals: writing netlist parameters to rawfile.

Opening the PSFASCII file ../psf/designParamVals.info ...
primitives: writing primitives to rawfile.

Opening the PSFASCII file ../psf/primitives.info.primitives ...
subckts: writing subcircuits to rawfile.

Opening the PSFASCII file ../psf/subckts.info.subckts ...

Aggregate audit (8:38:52 PM, Fri Feb 21, 2020):
Time used: CPU = 425 ms, elapsed = 328 s (5m  27.6s), util. = 130e-03%.
Time spent in licensing: elapsed = 38.6 ms.
Peak memory used = 46.2 Mbytes.
Simulation started at: 8:33:25 PM, Fri Feb 21, 2020, ended at: 8:38:52 PM, Fri Feb 21, 2020, with elapsed time (wall clock): 328 s (5m  27.6s).
spectre completes with 0 errors, 10 warnings, and 1 notice.
