Spectre (R) Circuit Simulator
Version 16.1.0.479.isr9 32bit -- 7 Sep 2017
Simulating `input.scs' on eeapps01.seas.ucla.edu at 12:57:43 AM, Fri Feb 28, 2020 (process id: 61813).
H = mpsImport( "spectre" "ipi" "v0.0" ?session "spectre3_190461_6" )
H->sclSetResultDir( "../psf" )
H->sclRun( "all" )
sclCkt0x10abee18 = H->sclGetCircuit(  "" )
H->sclQuit(  )
